*|TITLE Netlist generated by Raphael FX rcnetmerge
*|TITLE 1.1
*|TITLE Date Fri Apr 23 15:29:59 PDT 2021
*|PARAM cellnamefrom= raphaelfx
*|PARAM include= {}
*|PARAM instancefrom= raphaelnet
*|PARAM outputnet= n943_rph.spf
*|PARAM pingroup=  WL {WLL WLR} BL {BLU BLD} BLB {BLBU BLBD} 
*|PARAM pinsfrom= raphaelfx
*|PARAM raphaelnet= n943_rph.spi
*|PARAM referencenet= /nfs/pdx/disks/icf_sandp_gwa001/changyok/swb/SNPS_DTCO/TRD2/20201220/BIC2022_update20210412/2-RC_Extraction/2.01-BIC2022_FinFET_PEX_Nominal/sram_hd_wide.lvs

.SUBCKT array_flat BLBD BLBU BLD BLU VDD VSS WLL WLR VBP VBN

*|NETS BL BLB VDD VSS WL iQ1 iQ2

*|CAPACITANCE GRAND SUM 2.4250e-04PF
*|BLB WL 1.8412e-05PF
*|BLB iQ1 7.0262e-07PF
*|BLB iQ2 5.1015e-06PF
*|BL BLB 8.6550e-08PF
*|BL WL 1.8054e-05PF
*|BL iQ1 5.0802e-06PF
*|BL iQ2 6.7288e-07PF
*|VDD BL 1.1174e-05PF
*|VDD BLB 1.1189e-05PF
*|VDD VSS 1.0262e-05PF
*|VDD WL 6.8374e-06PF
*|VDD iQ1 1.3542e-05PF
*|VDD iQ2 1.3891e-05PF
*|VSS BL 7.6847e-06PF
*|VSS BLB 7.9724e-06PF
*|VSS WL 1.8895e-05PF
*|VSS iQ1 1.0060e-05PF
*|VSS iQ2 1.0434e-05PF
*|WL iQ1 1.6089e-05PF
*|WL iQ2 1.6283e-05PF
*|iQ1 iQ2 4.0074e-05PF

*|NET BL 4.2753e-05PF
C_0_0 BLBD BLD 1.9537e-21
C_0_1 BLBD BLU 1.9537e-21
C_0_2 BLBD BL:LM00Cobalt2XG481ULM40Cobalt5XG40X1 2.9103e-21
C_0_3 BLBD BL:LM00Cobalt2XG481UTiSiXG473X1 9.6512e-22
C_0_4 BLBD BL:SiliconNXG468UTiSiXG473X1 2.0584e-22
C_0_5 BLBD BL:n2d 3.1358e-22
C_0_6 BLBU BLD 1.9537e-21
C_0_7 BLBU BLU 1.9537e-21
C_0_8 BLBU BL:LM00Cobalt2XG481ULM40Cobalt5XG40X1 2.9103e-21
C_0_9 BLBU BL:LM00Cobalt2XG481UTiSiXG473X1 9.6512e-22
C_0_10 BLBU BL:SiliconNXG468UTiSiXG473X1 2.0584e-22
C_0_11 BLBU BL:n2d 3.1358e-22
C_0_12 BLD WLL 2.9110e-19
C_0_13 BLD WLR 2.9110e-19
C_0_14 BLD BLB:LM00Cobalt2XG64ULM40Cobalt5XG61X1 2.9272e-21
C_0_15 BLD BLB:LM00Cobalt2XG64UTiSiXG68X1 9.8205e-22
C_0_16 BLD BLB:SiliconNXG67UTiSiXG68X1 2.0406e-22
C_0_17 BLD BLB:n3s 3.1213e-22
C_0_18 BLD WL:LM00Cobalt2XG307ULM10Tungsten1XG322X1 1.3769e-19
C_0_19 BLD WL:LM00Cobalt2XG307ULM40Cobalt5XG251X1 7.4183e-19
C_0_20 BLD WL:LM00Cobalt2XG84ULM10Tungsten1XG144X1 2.3896e-22
C_0_21 BLD WL:LM00Cobalt2XG84ULM40Cobalt5XG76X1 5.2655e-23
C_0_22 BLD WL:LM20Cobalt3XG283ULM30Cobalt4XG102X1 4.2266e-19
C_0_23 BLD WL:LM20Cobalt3XG283ULM40Cobalt5XG251X1 8.0938e-19
C_0_24 BLD WL:LM20Cobalt3XG81ULM30Cobalt4XG102X1 2.9111e-19
C_0_25 BLD WL:LM20Cobalt3XG81ULM40Cobalt5XG76X1 4.9039e-23
C_0_26 BLD WL:n2g 6.0640e-22
C_0_27 BLD WL:n3g 3.4660e-23
C_0_28 BLD iQ1:LM00Cobalt2XG275ULM10Tungsten1XG323X1 2.2266e-19
C_0_29 BLD iQ1:LM00Cobalt2XG275USiGeBXG256X1 1.9163e-19
C_0_30 BLD iQ1:LM00Cobalt2XG275UTiSiXG269X1 1.9162e-19
C_0_31 BLD iQ1:LM00Cobalt2XG275UTiSiXG270X1 1.9161e-19
C_0_32 BLD iQ1:SDexcludeXG241UTiSiXG270X1 6.9084e-23
C_0_33 BLD iQ1:SDexcludeXG245UTiSiXG269X1 6.7031e-23
C_0_34 BLD iQ1:SiGeBXG256UTiSiXG270X1 1.8154e-23
C_0_35 BLD iQ1:SiGeBXG257UTiSiXG270X1 6.5250e-25
C_0_36 BLD iQ1:SiGeBXG260UTiSiXG270X1 6.5058e-25
C_0_37 BLD iQ1:SiGeBXG286UTiSiXG270X1 6.7951e-25
C_0_38 BLD iQ1:SiGeBXG290UTiSiXG270X1 6.4778e-25
C_0_39 BLD iQ1:SiliconNXG274UTiSiXG269X1 5.5021e-23
C_0_40 BLD iQ1:n1d 9.3897e-23
C_0_41 BLD iQ1:n2s 9.3897e-23
C_0_42 BLD iQ1:n4g 3.1358e-23
C_0_43 BLD iQ1:p1d 8.5943e-23
C_0_44 BLD iQ1:p2g 9.2533e-23
C_0_45 BLD iQ2:LM00Cobalt2XG118ULM10Tungsten1XG129X1 1.3577e-19
C_0_46 BLD iQ2:LM00Cobalt2XG118USiGeBXG261X1 6.1339e-22
C_0_47 BLD iQ2:LM00Cobalt2XG118UTiSiXG271X1 6.0707e-22
C_0_48 BLD iQ2:LM00Cobalt2XG118UTiSiXG272X1 6.0698e-22
C_0_49 BLD iQ2:SDexcludeXG242UTiSiXG271X1 4.4368e-23
C_0_50 BLD iQ2:SDexcludeXG246UTiSiXG272X1 2.0948e-23
C_0_51 BLD iQ2:SiGeBXG261UTiSiXG271X1 6.5110e-24
C_0_52 BLD iQ2:SiGeBXG262UTiSiXG271X1 9.3325e-26
C_0_53 BLD iQ2:SiGeBXG265UTiSiXG271X1 9.3045e-26
C_0_54 BLD iQ2:SiliconNXG276UTiSiXG272X1 8.7926e-25
C_0_55 BLD iQ2:n1g 3.7083e-22
C_0_56 BLD iQ2:n3d 2.1809e-23
C_0_57 BLD iQ2:n4s 2.1809e-23
C_0_58 BLD iQ2:p1g 1.7973e-22
C_0_59 BLD iQ2:p2s 5.0693e-23
C_0_60 BLU WLL 2.9110e-19
C_0_61 BLU WLR 2.9110e-19
C_0_62 BLU BLB:LM00Cobalt2XG64ULM40Cobalt5XG61X1 2.9272e-21
C_0_63 BLU BLB:LM00Cobalt2XG64UTiSiXG68X1 9.8205e-22
C_0_64 BLU BLB:SiliconNXG67UTiSiXG68X1 2.0406e-22
C_0_65 BLU BLB:n3s 3.1213e-22
C_0_66 BLU WL:LM00Cobalt2XG307ULM10Tungsten1XG322X1 1.3769e-19
C_0_67 BLU WL:LM00Cobalt2XG307ULM40Cobalt5XG251X1 7.4183e-19
C_0_68 BLU WL:LM00Cobalt2XG84ULM10Tungsten1XG144X1 2.3896e-22
C_0_69 BLU WL:LM00Cobalt2XG84ULM40Cobalt5XG76X1 5.2655e-23
C_0_70 BLU WL:LM20Cobalt3XG283ULM30Cobalt4XG102X1 4.2266e-19
C_0_71 BLU WL:LM20Cobalt3XG283ULM40Cobalt5XG251X1 8.0938e-19
C_0_72 BLU WL:LM20Cobalt3XG81ULM30Cobalt4XG102X1 2.9111e-19
C_0_73 BLU WL:LM20Cobalt3XG81ULM40Cobalt5XG76X1 4.9039e-23
C_0_74 BLU WL:n2g 6.0640e-22
C_0_75 BLU WL:n3g 3.4660e-23
C_0_76 BLU iQ1:LM00Cobalt2XG275ULM10Tungsten1XG323X1 2.2266e-19
C_0_77 BLU iQ1:LM00Cobalt2XG275USiGeBXG256X1 1.9163e-19
C_0_78 BLU iQ1:LM00Cobalt2XG275UTiSiXG269X1 1.9162e-19
C_0_79 BLU iQ1:LM00Cobalt2XG275UTiSiXG270X1 1.9161e-19
C_0_80 BLU iQ1:SDexcludeXG241UTiSiXG270X1 6.9084e-23
C_0_81 BLU iQ1:SDexcludeXG245UTiSiXG269X1 6.7031e-23
C_0_82 BLU iQ1:SiGeBXG256UTiSiXG270X1 1.8154e-23
C_0_83 BLU iQ1:SiGeBXG257UTiSiXG270X1 6.5250e-25
C_0_84 BLU iQ1:SiGeBXG260UTiSiXG270X1 6.5058e-25
C_0_85 BLU iQ1:SiGeBXG286UTiSiXG270X1 6.7951e-25
C_0_86 BLU iQ1:SiGeBXG290UTiSiXG270X1 6.4778e-25
C_0_87 BLU iQ1:SiliconNXG274UTiSiXG269X1 5.5021e-23
C_0_88 BLU iQ1:n1d 9.3897e-23
C_0_89 BLU iQ1:n2s 9.3897e-23
C_0_90 BLU iQ1:n4g 3.1358e-23
C_0_91 BLU iQ1:p1d 8.5943e-23
C_0_92 BLU iQ1:p2g 9.2533e-23
C_0_93 BLU iQ2:LM00Cobalt2XG118ULM10Tungsten1XG129X1 1.3577e-19
C_0_94 BLU iQ2:LM00Cobalt2XG118USiGeBXG261X1 6.1339e-22
C_0_95 BLU iQ2:LM00Cobalt2XG118UTiSiXG271X1 6.0707e-22
C_0_96 BLU iQ2:LM00Cobalt2XG118UTiSiXG272X1 6.0698e-22
C_0_97 BLU iQ2:SDexcludeXG242UTiSiXG271X1 4.4368e-23
C_0_98 BLU iQ2:SDexcludeXG246UTiSiXG272X1 2.0948e-23
C_0_99 BLU iQ2:SiGeBXG261UTiSiXG271X1 6.5110e-24
C_0_100 BLU iQ2:SiGeBXG262UTiSiXG271X1 9.3325e-26
C_0_101 BLU iQ2:SiGeBXG265UTiSiXG271X1 9.3045e-26
C_0_102 BLU iQ2:SiliconNXG276UTiSiXG272X1 8.7926e-25
C_0_103 BLU iQ2:n1g 3.7083e-22
C_0_104 BLU iQ2:n3d 2.1809e-23
C_0_105 BLU iQ2:n4s 2.1809e-23
C_0_106 BLU iQ2:p1g 1.7973e-22
C_0_107 BLU iQ2:p2s 5.0693e-23
C_0_108 WLL BL:LM00Cobalt2XG481ULM40Cobalt5XG40X1 2.9324e-19
C_0_109 WLL BL:LM00Cobalt2XG481UTiSiXG473X1 2.1480e-21
C_0_110 WLL BL:SiliconNXG468UTiSiXG473X1 8.6436e-23
C_0_111 WLL BL:n2d 9.3128e-23
C_0_112 WLR BL:LM00Cobalt2XG481ULM40Cobalt5XG40X1 2.9324e-19
C_0_113 WLR BL:LM00Cobalt2XG481UTiSiXG473X1 2.1480e-21
C_0_114 WLR BL:SiliconNXG468UTiSiXG473X1 8.6436e-23
C_0_115 WLR BL:n2d 9.3128e-23
C_0_116 BL:LM00Cobalt2XG481ULM40Cobalt5XG40X1 BLB:LM00Cobalt2XG64ULM40Cobalt5XG61X1 3.9022e-21
C_0_117 BL:LM00Cobalt2XG481ULM40Cobalt5XG40X1 BLB:LM00Cobalt2XG64UTiSiXG68X1 1.0012e-21
C_0_118 BL:LM00Cobalt2XG481ULM40Cobalt5XG40X1 BLB:SiliconNXG67UTiSiXG68X1 3.3477e-22
C_0_119 BL:LM00Cobalt2XG481ULM40Cobalt5XG40X1 BLB:n3s 1.1418e-21
C_0_120 BL:LM00Cobalt2XG481ULM40Cobalt5XG40X1 WL:LM00Cobalt2XG307ULM10Tungsten1XG322X1 1.3260e-18
C_0_121 BL:LM00Cobalt2XG481ULM40Cobalt5XG40X1 WL:LM00Cobalt2XG307ULM40Cobalt5XG251X1 1.0447e-18
C_0_122 BL:LM00Cobalt2XG481ULM40Cobalt5XG40X1 WL:LM00Cobalt2XG84ULM10Tungsten1XG144X1 9.8127e-22
C_0_123 BL:LM00Cobalt2XG481ULM40Cobalt5XG40X1 WL:LM00Cobalt2XG84ULM40Cobalt5XG76X1 5.4003e-23
C_0_124 BL:LM00Cobalt2XG481ULM40Cobalt5XG40X1 WL:LM20Cobalt3XG283ULM30Cobalt4XG102X1 4.3738e-19
C_0_125 BL:LM00Cobalt2XG481ULM40Cobalt5XG40X1 WL:LM20Cobalt3XG283ULM40Cobalt5XG251X1 9.5579e-19
C_0_126 BL:LM00Cobalt2XG481ULM40Cobalt5XG40X1 WL:LM20Cobalt3XG81ULM30Cobalt4XG102X1 2.9325e-19
C_0_127 BL:LM00Cobalt2XG481ULM40Cobalt5XG40X1 WL:LM20Cobalt3XG81ULM40Cobalt5XG76X1 4.9610e-23
C_0_128 BL:LM00Cobalt2XG481ULM40Cobalt5XG40X1 WL:n2g 7.9001e-20
C_0_129 BL:LM00Cobalt2XG481ULM40Cobalt5XG40X1 WL:n3g 3.1230e-22
C_0_130 BL:LM00Cobalt2XG481ULM40Cobalt5XG40X1 iQ1:LM00Cobalt2XG275ULM10Tungsten1XG323X1 7.0343e-19
C_0_131 BL:LM00Cobalt2XG481ULM40Cobalt5XG40X1 iQ1:LM00Cobalt2XG275USiGeBXG256X1 2.6126e-19
C_0_132 BL:LM00Cobalt2XG481ULM40Cobalt5XG40X1 iQ1:LM00Cobalt2XG275UTiSiXG269X1 2.6102e-19
C_0_133 BL:LM00Cobalt2XG481ULM40Cobalt5XG40X1 iQ1:LM00Cobalt2XG275UTiSiXG270X1 2.6099e-19
C_0_134 BL:LM00Cobalt2XG481ULM40Cobalt5XG40X1 iQ1:SDexcludeXG241UTiSiXG270X1 1.0057e-21
C_0_135 BL:LM00Cobalt2XG481ULM40Cobalt5XG40X1 iQ1:SDexcludeXG245UTiSiXG269X1 7.0040e-22
C_0_136 BL:LM00Cobalt2XG481ULM40Cobalt5XG40X1 iQ1:SiGeBXG256UTiSiXG270X1 2.7623e-22
C_0_137 BL:LM00Cobalt2XG481ULM40Cobalt5XG40X1 iQ1:SiGeBXG257UTiSiXG270X1 3.4140e-24
C_0_138 BL:LM00Cobalt2XG481ULM40Cobalt5XG40X1 iQ1:SiGeBXG260UTiSiXG270X1 3.3944e-24
C_0_139 BL:LM00Cobalt2XG481ULM40Cobalt5XG40X1 iQ1:SiGeBXG286UTiSiXG270X1 3.4753e-24
C_0_140 BL:LM00Cobalt2XG481ULM40Cobalt5XG40X1 iQ1:SiGeBXG290UTiSiXG270X1 3.3925e-24
C_0_141 BL:LM00Cobalt2XG481ULM40Cobalt5XG40X1 iQ1:SiliconNXG274UTiSiXG269X1 2.3917e-22
C_0_142 BL:LM00Cobalt2XG481ULM40Cobalt5XG40X1 iQ1:n1d 8.7030e-22
C_0_143 BL:LM00Cobalt2XG481ULM40Cobalt5XG40X1 iQ1:n2s 8.7030e-22
C_0_144 BL:LM00Cobalt2XG481ULM40Cobalt5XG40X1 iQ1:n4g 4.3905e-22
C_0_145 BL:LM00Cobalt2XG481ULM40Cobalt5XG40X1 iQ1:p1d 1.2751e-21
C_0_146 BL:LM00Cobalt2XG481ULM40Cobalt5XG40X1 iQ1:p2g 1.3634e-21
C_0_147 BL:LM00Cobalt2XG481ULM40Cobalt5XG40X1 iQ2:LM00Cobalt2XG118ULM10Tungsten1XG129X1 1.3918e-19
C_0_148 BL:LM00Cobalt2XG481ULM40Cobalt5XG40X1 iQ2:LM00Cobalt2XG118USiGeBXG261X1 7.8459e-22
C_0_149 BL:LM00Cobalt2XG481ULM40Cobalt5XG40X1 iQ2:LM00Cobalt2XG118UTiSiXG271X1 7.6360e-22
C_0_150 BL:LM00Cobalt2XG481ULM40Cobalt5XG40X1 iQ2:LM00Cobalt2XG118UTiSiXG272X1 7.6349e-22
C_0_151 BL:LM00Cobalt2XG481ULM40Cobalt5XG40X1 iQ2:SDexcludeXG242UTiSiXG271X1 5.9592e-22
C_0_152 BL:LM00Cobalt2XG481ULM40Cobalt5XG40X1 iQ2:SDexcludeXG246UTiSiXG272X1 2.7843e-22
C_0_153 BL:LM00Cobalt2XG481ULM40Cobalt5XG40X1 iQ2:SiGeBXG261UTiSiXG271X1 2.1291e-23
C_0_154 BL:LM00Cobalt2XG481ULM40Cobalt5XG40X1 iQ2:SiGeBXG262UTiSiXG271X1 1.5559e-25
C_0_155 BL:LM00Cobalt2XG481ULM40Cobalt5XG40X1 iQ2:SiGeBXG265UTiSiXG271X1 1.4875e-25
C_0_156 BL:LM00Cobalt2XG481ULM40Cobalt5XG40X1 iQ2:SiliconNXG276UTiSiXG272X1 1.0391e-23
C_0_157 BL:LM00Cobalt2XG481ULM40Cobalt5XG40X1 iQ2:n1g 8.1187e-22
C_0_158 BL:LM00Cobalt2XG481ULM40Cobalt5XG40X1 iQ2:n3d 2.8874e-22
C_0_159 BL:LM00Cobalt2XG481ULM40Cobalt5XG40X1 iQ2:n4s 2.8874e-22
C_0_160 BL:LM00Cobalt2XG481ULM40Cobalt5XG40X1 iQ2:p1g 5.4726e-22
C_0_161 BL:LM00Cobalt2XG481ULM40Cobalt5XG40X1 iQ2:p2s 6.1692e-22
C_0_162 BL:LM00Cobalt2XG481UTiSiXG473X1 BLB:LM00Cobalt2XG64ULM40Cobalt5XG61X1 9.8429e-22
C_0_163 BL:LM00Cobalt2XG481UTiSiXG473X1 BLB:LM00Cobalt2XG64UTiSiXG68X1 2.0039e-23
C_0_164 BL:LM00Cobalt2XG481UTiSiXG473X1 BLB:SiliconNXG67UTiSiXG68X1 1.3686e-22
C_0_165 BL:LM00Cobalt2XG481UTiSiXG473X1 BLB:n3s 8.6857e-22
C_0_166 BL:LM00Cobalt2XG481UTiSiXG473X1 WL:LM00Cobalt2XG307ULM10Tungsten1XG322X1 1.1964e-18
C_0_167 BL:LM00Cobalt2XG481UTiSiXG473X1 WL:LM00Cobalt2XG307ULM40Cobalt5XG251X1 3.0374e-19
C_0_168 BL:LM00Cobalt2XG481UTiSiXG473X1 WL:LM00Cobalt2XG84ULM10Tungsten1XG144X1 7.7683e-22
C_0_169 BL:LM00Cobalt2XG481UTiSiXG473X1 WL:LM00Cobalt2XG84ULM40Cobalt5XG76X1 1.3994e-24
C_0_170 BL:LM00Cobalt2XG481UTiSiXG473X1 WL:LM20Cobalt3XG283ULM30Cobalt4XG102X1 1.4740e-20
C_0_171 BL:LM00Cobalt2XG481UTiSiXG473X1 WL:LM20Cobalt3XG283ULM40Cobalt5XG251X1 1.4657e-19
C_0_172 BL:LM00Cobalt2XG481UTiSiXG473X1 WL:LM20Cobalt3XG81ULM30Cobalt4XG102X1 2.1480e-21
C_0_173 BL:LM00Cobalt2XG481UTiSiXG473X1 WL:LM20Cobalt3XG81ULM40Cobalt5XG76X1 5.8694e-25
C_0_174 BL:LM00Cobalt2XG481UTiSiXG473X1 WL:n2g 8.0251e-20
C_0_175 BL:LM00Cobalt2XG481UTiSiXG473X1 WL:n3g 2.9057e-22
C_0_176 BL:LM00Cobalt2XG481UTiSiXG473X1 iQ1:LM00Cobalt2XG275ULM10Tungsten1XG323X1 4.8621e-19
C_0_177 BL:LM00Cobalt2XG481UTiSiXG473X1 iQ1:LM00Cobalt2XG275USiGeBXG256X1 6.9775e-20
C_0_178 BL:LM00Cobalt2XG481UTiSiXG473X1 iQ1:LM00Cobalt2XG275UTiSiXG269X1 6.9537e-20
C_0_179 BL:LM00Cobalt2XG481UTiSiXG473X1 iQ1:LM00Cobalt2XG275UTiSiXG270X1 6.9519e-20
C_0_180 BL:LM00Cobalt2XG481UTiSiXG473X1 iQ1:SDexcludeXG241UTiSiXG270X1 9.7799e-22
C_0_181 BL:LM00Cobalt2XG481UTiSiXG473X1 iQ1:SDexcludeXG245UTiSiXG269X1 6.6377e-22
C_0_182 BL:LM00Cobalt2XG481UTiSiXG473X1 iQ1:SiGeBXG256UTiSiXG270X1 2.6190e-22
C_0_183 BL:LM00Cobalt2XG481UTiSiXG473X1 iQ1:SiGeBXG257UTiSiXG270X1 2.7817e-24
C_0_184 BL:LM00Cobalt2XG481UTiSiXG473X1 iQ1:SiGeBXG260UTiSiXG270X1 2.7637e-24
C_0_185 BL:LM00Cobalt2XG481UTiSiXG473X1 iQ1:SiGeBXG286UTiSiXG270X1 2.8174e-24
C_0_186 BL:LM00Cobalt2XG481UTiSiXG473X1 iQ1:SiGeBXG290UTiSiXG270X1 2.7647e-24
C_0_187 BL:LM00Cobalt2XG481UTiSiXG473X1 iQ1:SiliconNXG274UTiSiXG269X1 1.8706e-22
C_0_188 BL:LM00Cobalt2XG481UTiSiXG473X1 iQ1:n1d 8.0952e-22
C_0_189 BL:LM00Cobalt2XG481UTiSiXG473X1 iQ1:n2s 8.0952e-22
C_0_190 BL:LM00Cobalt2XG481UTiSiXG473X1 iQ1:n4g 4.2492e-22
C_0_191 BL:LM00Cobalt2XG481UTiSiXG473X1 iQ1:p1d 1.2344e-21
C_0_192 BL:LM00Cobalt2XG481UTiSiXG473X1 iQ1:p2g 1.3149e-21
C_0_193 BL:LM00Cobalt2XG481UTiSiXG473X1 iQ2:LM00Cobalt2XG118ULM10Tungsten1XG129X1 3.5547e-21
C_0_194 BL:LM00Cobalt2XG481UTiSiXG473X1 iQ2:LM00Cobalt2XG118USiGeBXG261X1 1.7293e-22
C_0_195 BL:LM00Cobalt2XG481UTiSiXG473X1 iQ2:LM00Cobalt2XG118UTiSiXG271X1 1.5767e-22
C_0_196 BL:LM00Cobalt2XG481UTiSiXG473X1 iQ2:LM00Cobalt2XG118UTiSiXG272X1 1.5765e-22
C_0_197 BL:LM00Cobalt2XG481UTiSiXG473X1 iQ2:SDexcludeXG242UTiSiXG271X1 5.7630e-22
C_0_198 BL:LM00Cobalt2XG481UTiSiXG473X1 iQ2:SDexcludeXG246UTiSiXG272X1 2.6923e-22
C_0_199 BL:LM00Cobalt2XG481UTiSiXG473X1 iQ2:SiGeBXG261UTiSiXG271X1 1.5368e-23
C_0_200 BL:LM00Cobalt2XG481UTiSiXG473X1 iQ2:SiGeBXG262UTiSiXG271X1 6.2964e-26
C_0_201 BL:LM00Cobalt2XG481UTiSiXG473X1 iQ2:SiGeBXG265UTiSiXG271X1 5.6121e-26
C_0_202 BL:LM00Cobalt2XG481UTiSiXG473X1 iQ2:SiliconNXG276UTiSiXG272X1 9.9424e-24
C_0_203 BL:LM00Cobalt2XG481UTiSiXG473X1 iQ2:n1g 4.6274e-22
C_0_204 BL:LM00Cobalt2XG481UTiSiXG473X1 iQ2:n3d 2.7910e-22
C_0_205 BL:LM00Cobalt2XG481UTiSiXG473X1 iQ2:n4s 2.7910e-22
C_0_206 BL:LM00Cobalt2XG481UTiSiXG473X1 iQ2:p1g 3.8486e-22
C_0_207 BL:LM00Cobalt2XG481UTiSiXG473X1 iQ2:p2s 5.9156e-22
C_0_208 BL:SiliconNXG468UTiSiXG473X1 BLB:LM00Cobalt2XG64ULM40Cobalt5XG61X1 3.3855e-22
C_0_209 BL:SiliconNXG468UTiSiXG473X1 BLB:LM00Cobalt2XG64UTiSiXG68X1 1.3878e-22
C_0_210 BL:SiliconNXG468UTiSiXG473X1 BLB:SiliconNXG67UTiSiXG68X1 9.4481e-22
C_0_211 BL:SiliconNXG468UTiSiXG473X1 BLB:n3s 5.9521e-21
C_0_212 BL:SiliconNXG468UTiSiXG473X1 WL:LM00Cobalt2XG307ULM10Tungsten1XG322X1 1.7573e-18
C_0_213 BL:SiliconNXG468UTiSiXG473X1 WL:LM00Cobalt2XG307ULM40Cobalt5XG251X1 4.1808e-20
C_0_214 BL:SiliconNXG468UTiSiXG473X1 WL:LM00Cobalt2XG84ULM10Tungsten1XG144X1 5.2021e-21
C_0_215 BL:SiliconNXG468UTiSiXG473X1 WL:LM00Cobalt2XG84ULM40Cobalt5XG76X1 7.7376e-24
C_0_216 BL:SiliconNXG468UTiSiXG473X1 WL:LM20Cobalt3XG283ULM30Cobalt4XG102X1 4.5863e-22
C_0_217 BL:SiliconNXG468UTiSiXG473X1 WL:LM20Cobalt3XG283ULM40Cobalt5XG251X1 4.6426e-21
C_0_218 BL:SiliconNXG468UTiSiXG473X1 WL:LM20Cobalt3XG81ULM30Cobalt4XG102X1 8.6488e-23
C_0_219 BL:SiliconNXG468UTiSiXG473X1 WL:LM20Cobalt3XG81ULM40Cobalt5XG76X1 2.1819e-24
C_0_220 BL:SiliconNXG468UTiSiXG473X1 WL:n2g 1.8561e-21
C_0_221 BL:SiliconNXG468UTiSiXG473X1 WL:n3g 1.2922e-23
C_0_222 BL:SiliconNXG468UTiSiXG473X1 iQ1:LM00Cobalt2XG275ULM10Tungsten1XG323X1 3.0214e-19
C_0_223 BL:SiliconNXG468UTiSiXG473X1 iQ1:LM00Cobalt2XG275USiGeBXG256X1 4.0702e-21
C_0_224 BL:SiliconNXG468UTiSiXG473X1 iQ1:LM00Cobalt2XG275UTiSiXG269X1 3.5157e-21
C_0_225 BL:SiliconNXG468UTiSiXG473X1 iQ1:LM00Cobalt2XG275UTiSiXG270X1 3.5081e-21
C_0_226 BL:SiliconNXG468UTiSiXG473X1 iQ1:SDexcludeXG241UTiSiXG270X1 6.2490e-21
C_0_227 BL:SiliconNXG468UTiSiXG473X1 iQ1:SDexcludeXG245UTiSiXG269X1 5.5895e-21
C_0_228 BL:SiliconNXG468UTiSiXG473X1 iQ1:SiGeBXG256UTiSiXG270X1 5.6597e-22
C_0_229 BL:SiliconNXG468UTiSiXG473X1 iQ1:SiGeBXG257UTiSiXG270X1 1.9209e-24
C_0_230 BL:SiliconNXG468UTiSiXG473X1 iQ1:SiGeBXG260UTiSiXG270X1 1.8994e-24
C_0_231 BL:SiliconNXG468UTiSiXG473X1 iQ1:SiGeBXG286UTiSiXG270X1 2.0114e-24
C_0_232 BL:SiliconNXG468UTiSiXG473X1 iQ1:SiGeBXG290UTiSiXG270X1 1.8997e-24
C_0_233 BL:SiliconNXG468UTiSiXG473X1 iQ1:SiliconNXG274UTiSiXG269X1 4.6513e-22
C_0_234 BL:SiliconNXG468UTiSiXG473X1 iQ1:n1d 6.0355e-21
C_0_235 BL:SiliconNXG468UTiSiXG473X1 iQ1:n2s 6.0355e-21
C_0_236 BL:SiliconNXG468UTiSiXG473X1 iQ1:n4g 1.7235e-23
C_0_237 BL:SiliconNXG468UTiSiXG473X1 iQ1:p1d 6.8112e-21
C_0_238 BL:SiliconNXG468UTiSiXG473X1 iQ1:p2g 4.3976e-23
C_0_239 BL:SiliconNXG468UTiSiXG473X1 iQ2:LM00Cobalt2XG118ULM10Tungsten1XG129X1 1.9638e-20
C_0_240 BL:SiliconNXG468UTiSiXG473X1 iQ2:LM00Cobalt2XG118USiGeBXG261X1 1.1280e-22
C_0_241 BL:SiliconNXG468UTiSiXG473X1 iQ2:LM00Cobalt2XG118UTiSiXG271X1 3.0230e-23
C_0_242 BL:SiliconNXG468UTiSiXG473X1 iQ2:LM00Cobalt2XG118UTiSiXG272X1 3.0385e-23
C_0_243 BL:SiliconNXG468UTiSiXG473X1 iQ2:SDexcludeXG242UTiSiXG271X1 3.4948e-21
C_0_244 BL:SiliconNXG468UTiSiXG473X1 iQ2:SDexcludeXG246UTiSiXG272X1 1.7192e-21
C_0_245 BL:SiliconNXG468UTiSiXG473X1 iQ2:SiGeBXG261UTiSiXG271X1 8.2595e-23
C_0_246 BL:SiliconNXG468UTiSiXG473X1 iQ2:SiGeBXG262UTiSiXG271X1 4.8883e-26
C_0_247 BL:SiliconNXG468UTiSiXG473X1 iQ2:SiGeBXG265UTiSiXG271X1 1.3149e-26
C_0_248 BL:SiliconNXG468UTiSiXG473X1 iQ2:SiliconNXG276UTiSiXG272X1 6.2306e-23
C_0_249 BL:SiliconNXG468UTiSiXG473X1 iQ2:n1g 2.1697e-23
C_0_250 BL:SiliconNXG468UTiSiXG473X1 iQ2:n3d 1.7812e-21
C_0_251 BL:SiliconNXG468UTiSiXG473X1 iQ2:n4s 1.7812e-21
C_0_252 BL:SiliconNXG468UTiSiXG473X1 iQ2:p1g 1.7327e-23
C_0_253 BL:SiliconNXG468UTiSiXG473X1 iQ2:p2s 3.5773e-21
C_0_254 BL:n2d BLB:LM00Cobalt2XG64ULM40Cobalt5XG61X1 1.1569e-21
C_0_255 BL:n2d BLB:LM00Cobalt2XG64UTiSiXG68X1 8.8180e-22
C_0_256 BL:n2d BLB:SiliconNXG67UTiSiXG68X1 5.9573e-21
C_0_257 BL:n2d BLB:n3s 3.7335e-20
C_0_258 BL:n2d WL:LM00Cobalt2XG307ULM10Tungsten1XG322X1 3.7148e-18
C_0_259 BL:n2d WL:LM00Cobalt2XG307ULM40Cobalt5XG251X1 4.5048e-20
C_0_260 BL:n2d WL:LM00Cobalt2XG84ULM10Tungsten1XG144X1 3.2288e-20
C_0_261 BL:n2d WL:LM00Cobalt2XG84ULM40Cobalt5XG76X1 4.8524e-23
C_0_262 BL:n2d WL:LM20Cobalt3XG283ULM30Cobalt4XG102X1 4.8550e-22
C_0_263 BL:n2d WL:LM20Cobalt3XG283ULM40Cobalt5XG251X1 4.9070e-21
C_0_264 BL:n2d WL:LM20Cobalt3XG81ULM30Cobalt4XG102X1 9.3469e-23
C_0_265 BL:n2d WL:LM20Cobalt3XG81ULM40Cobalt5XG76X1 1.3562e-23
C_0_266 BL:n2d iQ1:LM00Cobalt2XG275ULM10Tungsten1XG323X1 5.9651e-19
C_0_267 BL:n2d iQ1:LM00Cobalt2XG275USiGeBXG256X1 5.8063e-21
C_0_268 BL:n2d iQ1:LM00Cobalt2XG275UTiSiXG269X1 4.1468e-21
C_0_269 BL:n2d iQ1:LM00Cobalt2XG275UTiSiXG270X1 4.1353e-21
C_0_270 BL:n2d iQ1:SDexcludeXG241UTiSiXG270X1 3.9205e-20
C_0_271 BL:n2d iQ1:SDexcludeXG245UTiSiXG269X1 8.1577e-20
C_0_272 BL:n2d iQ1:SiGeBXG256UTiSiXG270X1 1.6756e-21
C_0_273 BL:n2d iQ1:SiGeBXG257UTiSiXG270X1 2.2778e-24
C_0_274 BL:n2d iQ1:SiGeBXG260UTiSiXG270X1 2.2544e-24
C_0_275 BL:n2d iQ1:SiGeBXG286UTiSiXG270X1 2.5096e-24
C_0_276 BL:n2d iQ1:SiGeBXG290UTiSiXG270X1 2.2527e-24
C_0_277 BL:n2d iQ1:SiliconNXG274UTiSiXG269X1 2.1082e-21
C_0_278 BL:n2d iQ1:n1d 8.3657e-20
C_0_279 BL:n2d iQ1:n2s 8.3657e-20
C_0_280 BL:n2d iQ1:p1d 4.0876e-20
C_0_281 BL:n2d iQ2:LM00Cobalt2XG118ULM10Tungsten1XG129X1 1.3666e-19
C_0_282 BL:n2d iQ2:LM00Cobalt2XG118USiGeBXG261X1 5.5981e-22
C_0_283 BL:n2d iQ2:LM00Cobalt2XG118UTiSiXG271X1 6.8362e-23
C_0_284 BL:n2d iQ2:LM00Cobalt2XG118UTiSiXG272X1 6.9308e-23
C_0_285 BL:n2d iQ2:SDexcludeXG242UTiSiXG271X1 2.0614e-20
C_0_286 BL:n2d iQ2:SDexcludeXG246UTiSiXG272X1 1.0447e-20
C_0_287 BL:n2d iQ2:SiGeBXG261UTiSiXG271X1 4.9153e-22
C_0_288 BL:n2d iQ2:SiGeBXG262UTiSiXG271X1 1.7482e-25
C_0_289 BL:n2d iQ2:SiGeBXG265UTiSiXG271X1 4.1911e-26
C_0_290 BL:n2d iQ2:SiliconNXG276UTiSiXG272X1 3.7674e-22
C_0_291 BL:n2d iQ2:n3d 1.0822e-20
C_0_292 BL:n2d iQ2:n4s 1.0822e-20
C_0_293 BL:n2d iQ2:p2s 2.1105e-20
R_0_0 BLD BLU 2.3455e+01
R_0_1 BLD BL:LM00Cobalt2XG481ULM40Cobalt5XG40X1 2.2364e+01
R_0_2 BLU BL:LM00Cobalt2XG481ULM40Cobalt5XG40X1 6.1588e+02
R_0_3 BL:LM00Cobalt2XG481ULM40Cobalt5XG40X1 BL:LM00Cobalt2XG481UTiSiXG473X1 1.2276e+02
R_0_4 BL:LM00Cobalt2XG481UTiSiXG473X1 BL:SiliconNXG468UTiSiXG473X1 4.5683e+02
R_0_5 BL:SiliconNXG468UTiSiXG473X1 BL:n2d 4.1804e+01

*|NET BLB 4.3463e-05PF
C_1_0 BLBD WLL 2.9219e-19
C_1_1 BLBD WLR 2.9219e-19
C_1_2 BLBD WL:LM00Cobalt2XG307ULM10Tungsten1XG322X1 2.3814e-22
C_1_3 BLBD WL:LM00Cobalt2XG307ULM40Cobalt5XG251X1 3.6421e-23
C_1_4 BLBD WL:LM00Cobalt2XG84ULM10Tungsten1XG144X1 1.3005e-19
C_1_5 BLBD WL:LM00Cobalt2XG84ULM40Cobalt5XG76X1 7.2082e-19
C_1_6 BLBD WL:LM20Cobalt3XG283ULM30Cobalt4XG102X1 2.9221e-19
C_1_7 BLBD WL:LM20Cobalt3XG283ULM40Cobalt5XG251X1 3.5975e-23
C_1_8 BLBD WL:LM20Cobalt3XG81ULM30Cobalt4XG102X1 4.0095e-19
C_1_9 BLBD WL:LM20Cobalt3XG81ULM40Cobalt5XG76X1 7.6950e-19
C_1_10 BLBD WL:n2g 3.5183e-23
C_1_11 BLBD WL:n3g 4.9623e-22
C_1_12 BLBD iQ1:LM00Cobalt2XG275ULM10Tungsten1XG323X1 1.4546e-19
C_1_13 BLBD iQ1:LM00Cobalt2XG275USiGeBXG256X1 6.3289e-22
C_1_14 BLBD iQ1:LM00Cobalt2XG275UTiSiXG269X1 6.2639e-22
C_1_15 BLBD iQ1:LM00Cobalt2XG275UTiSiXG270X1 6.2647e-22
C_1_16 BLBD iQ1:SDexcludeXG241UTiSiXG270X1 4.3581e-23
C_1_17 BLBD iQ1:SDexcludeXG245UTiSiXG269X1 2.0597e-23
C_1_18 BLBD iQ1:SiGeBXG256UTiSiXG270X1 6.5967e-24
C_1_19 BLBD iQ1:SiGeBXG257UTiSiXG270X1 8.8570e-26
C_1_20 BLBD iQ1:SiGeBXG260UTiSiXG270X1 8.7693e-26
C_1_21 BLBD iQ1:SiGeBXG286UTiSiXG270X1 8.8515e-26
C_1_22 BLBD iQ1:SiGeBXG290UTiSiXG270X1 8.7559e-26
C_1_23 BLBD iQ1:SiliconNXG274UTiSiXG269X1 9.0324e-25
C_1_24 BLBD iQ1:n1d 2.1481e-23
C_1_25 BLBD iQ1:n2s 2.1481e-23
C_1_26 BLBD iQ1:n4g 4.6623e-22
C_1_27 BLBD iQ1:p1d 5.0003e-23
C_1_28 BLBD iQ1:p2g 2.1567e-22
C_1_29 BLBD iQ2:LM00Cobalt2XG118ULM10Tungsten1XG129X1 2.2061e-19
C_1_30 BLBD iQ2:LM00Cobalt2XG118USiGeBXG261X1 1.9108e-19
C_1_31 BLBD iQ2:LM00Cobalt2XG118UTiSiXG271X1 1.9107e-19
C_1_32 BLBD iQ2:LM00Cobalt2XG118UTiSiXG272X1 1.9109e-19
C_1_33 BLBD iQ2:SDexcludeXG242UTiSiXG271X1 6.7114e-23
C_1_34 BLBD iQ2:SDexcludeXG246UTiSiXG272X1 8.0358e-23
C_1_35 BLBD iQ2:SiGeBXG261UTiSiXG271X1 1.6849e-23
C_1_36 BLBD iQ2:SiGeBXG262UTiSiXG271X1 6.8327e-25
C_1_37 BLBD iQ2:SiGeBXG265UTiSiXG271X1 6.8063e-25
C_1_38 BLBD iQ2:SiliconNXG276UTiSiXG272X1 8.3331e-23
C_1_39 BLBD iQ2:n1g 3.0667e-23
C_1_40 BLBD iQ2:n3d 1.0723e-22
C_1_41 BLBD iQ2:n4s 1.0723e-22
C_1_42 BLBD iQ2:p1g 8.7647e-23
C_1_43 BLBD iQ2:p2s 8.2602e-23
C_1_44 BLBU WLL 2.9219e-19
C_1_45 BLBU WLR 2.9219e-19
C_1_46 BLBU WL:LM00Cobalt2XG307ULM10Tungsten1XG322X1 2.3814e-22
C_1_47 BLBU WL:LM00Cobalt2XG307ULM40Cobalt5XG251X1 3.6421e-23
C_1_48 BLBU WL:LM00Cobalt2XG84ULM10Tungsten1XG144X1 1.3005e-19
C_1_49 BLBU WL:LM00Cobalt2XG84ULM40Cobalt5XG76X1 7.2082e-19
C_1_50 BLBU WL:LM20Cobalt3XG283ULM30Cobalt4XG102X1 2.9221e-19
C_1_51 BLBU WL:LM20Cobalt3XG283ULM40Cobalt5XG251X1 3.5975e-23
C_1_52 BLBU WL:LM20Cobalt3XG81ULM30Cobalt4XG102X1 4.0095e-19
C_1_53 BLBU WL:LM20Cobalt3XG81ULM40Cobalt5XG76X1 7.6950e-19
C_1_54 BLBU WL:n2g 3.5183e-23
C_1_55 BLBU WL:n3g 4.9623e-22
C_1_56 BLBU iQ1:LM00Cobalt2XG275ULM10Tungsten1XG323X1 1.4546e-19
C_1_57 BLBU iQ1:LM00Cobalt2XG275USiGeBXG256X1 6.3289e-22
C_1_58 BLBU iQ1:LM00Cobalt2XG275UTiSiXG269X1 6.2639e-22
C_1_59 BLBU iQ1:LM00Cobalt2XG275UTiSiXG270X1 6.2647e-22
C_1_60 BLBU iQ1:SDexcludeXG241UTiSiXG270X1 4.3581e-23
C_1_61 BLBU iQ1:SDexcludeXG245UTiSiXG269X1 2.0597e-23
C_1_62 BLBU iQ1:SiGeBXG256UTiSiXG270X1 6.5967e-24
C_1_63 BLBU iQ1:SiGeBXG257UTiSiXG270X1 8.8570e-26
C_1_64 BLBU iQ1:SiGeBXG260UTiSiXG270X1 8.7693e-26
C_1_65 BLBU iQ1:SiGeBXG286UTiSiXG270X1 8.8515e-26
C_1_66 BLBU iQ1:SiGeBXG290UTiSiXG270X1 8.7559e-26
C_1_67 BLBU iQ1:SiliconNXG274UTiSiXG269X1 9.0324e-25
C_1_68 BLBU iQ1:n1d 2.1481e-23
C_1_69 BLBU iQ1:n2s 2.1481e-23
C_1_70 BLBU iQ1:n4g 4.6623e-22
C_1_71 BLBU iQ1:p1d 5.0003e-23
C_1_72 BLBU iQ1:p2g 2.1567e-22
C_1_73 BLBU iQ2:LM00Cobalt2XG118ULM10Tungsten1XG129X1 2.2061e-19
C_1_74 BLBU iQ2:LM00Cobalt2XG118USiGeBXG261X1 1.9108e-19
C_1_75 BLBU iQ2:LM00Cobalt2XG118UTiSiXG271X1 1.9107e-19
C_1_76 BLBU iQ2:LM00Cobalt2XG118UTiSiXG272X1 1.9109e-19
C_1_77 BLBU iQ2:SDexcludeXG242UTiSiXG271X1 6.7114e-23
C_1_78 BLBU iQ2:SDexcludeXG246UTiSiXG272X1 8.0358e-23
C_1_79 BLBU iQ2:SiGeBXG261UTiSiXG271X1 1.6849e-23
C_1_80 BLBU iQ2:SiGeBXG262UTiSiXG271X1 6.8327e-25
C_1_81 BLBU iQ2:SiGeBXG265UTiSiXG271X1 6.8063e-25
C_1_82 BLBU iQ2:SiliconNXG276UTiSiXG272X1 8.3331e-23
C_1_83 BLBU iQ2:n1g 3.0667e-23
C_1_84 BLBU iQ2:n3d 1.0723e-22
C_1_85 BLBU iQ2:n4s 1.0723e-22
C_1_86 BLBU iQ2:p1g 8.7647e-23
C_1_87 BLBU iQ2:p2s 8.2602e-23
C_1_88 WLL BLB:LM00Cobalt2XG64ULM40Cobalt5XG61X1 2.9396e-19
C_1_89 WLL BLB:LM00Cobalt2XG64UTiSiXG68X1 1.7740e-21
C_1_90 WLL BLB:SiliconNXG67UTiSiXG68X1 7.1121e-23
C_1_91 WLL BLB:n3s 7.6855e-23
C_1_92 WLR BLB:LM00Cobalt2XG64ULM40Cobalt5XG61X1 2.9396e-19
C_1_93 WLR BLB:LM00Cobalt2XG64UTiSiXG68X1 1.7740e-21
C_1_94 WLR BLB:SiliconNXG67UTiSiXG68X1 7.1121e-23
C_1_95 WLR BLB:n3s 7.6855e-23
C_1_96 BLB:LM00Cobalt2XG64ULM40Cobalt5XG61X1 WL:LM00Cobalt2XG307ULM10Tungsten1XG322X1 9.7253e-22
C_1_97 BLB:LM00Cobalt2XG64ULM40Cobalt5XG61X1 WL:LM00Cobalt2XG307ULM40Cobalt5XG251X1 3.7852e-23
C_1_98 BLB:LM00Cobalt2XG64ULM40Cobalt5XG61X1 WL:LM00Cobalt2XG84ULM10Tungsten1XG144X1 1.4904e-18
C_1_99 BLB:LM00Cobalt2XG64ULM40Cobalt5XG61X1 WL:LM00Cobalt2XG84ULM40Cobalt5XG76X1 1.0924e-18
C_1_100 BLB:LM00Cobalt2XG64ULM40Cobalt5XG61X1 WL:LM20Cobalt3XG283ULM30Cobalt4XG102X1 2.9398e-19
C_1_101 BLB:LM00Cobalt2XG64ULM40Cobalt5XG61X1 WL:LM20Cobalt3XG283ULM40Cobalt5XG251X1 3.6619e-23
C_1_102 BLB:LM00Cobalt2XG64ULM40Cobalt5XG61X1 WL:LM20Cobalt3XG81ULM30Cobalt4XG102X1 4.0732e-19
C_1_103 BLB:LM00Cobalt2XG64ULM40Cobalt5XG61X1 WL:LM20Cobalt3XG81ULM40Cobalt5XG76X1 9.7304e-19
C_1_104 BLB:LM00Cobalt2XG64ULM40Cobalt5XG61X1 WL:n2g 3.1886e-22
C_1_105 BLB:LM00Cobalt2XG64ULM40Cobalt5XG61X1 WL:n3g 9.6921e-20
C_1_106 BLB:LM00Cobalt2XG64ULM40Cobalt5XG61X1 iQ1:LM00Cobalt2XG275ULM10Tungsten1XG323X1 1.4894e-19
C_1_107 BLB:LM00Cobalt2XG64ULM40Cobalt5XG61X1 iQ1:LM00Cobalt2XG275USiGeBXG256X1 8.0030e-22
C_1_108 BLB:LM00Cobalt2XG64ULM40Cobalt5XG61X1 iQ1:LM00Cobalt2XG275UTiSiXG269X1 7.7885e-22
C_1_109 BLB:LM00Cobalt2XG64ULM40Cobalt5XG61X1 iQ1:LM00Cobalt2XG275UTiSiXG270X1 7.7897e-22
C_1_110 BLB:LM00Cobalt2XG64ULM40Cobalt5XG61X1 iQ1:SDexcludeXG241UTiSiXG270X1 6.0351e-22
C_1_111 BLB:LM00Cobalt2XG64ULM40Cobalt5XG61X1 iQ1:SDexcludeXG245UTiSiXG269X1 2.8217e-22
C_1_112 BLB:LM00Cobalt2XG64ULM40Cobalt5XG61X1 iQ1:SiGeBXG256UTiSiXG270X1 2.1609e-23
C_1_113 BLB:LM00Cobalt2XG64ULM40Cobalt5XG61X1 iQ1:SiGeBXG257UTiSiXG270X1 1.4422e-25
C_1_114 BLB:LM00Cobalt2XG64ULM40Cobalt5XG61X1 iQ1:SiGeBXG260UTiSiXG270X1 1.4161e-25
C_1_115 BLB:LM00Cobalt2XG64ULM40Cobalt5XG61X1 iQ1:SiGeBXG286UTiSiXG270X1 1.5536e-25
C_1_116 BLB:LM00Cobalt2XG64ULM40Cobalt5XG61X1 iQ1:SiGeBXG290UTiSiXG270X1 1.4119e-25
C_1_117 BLB:LM00Cobalt2XG64ULM40Cobalt5XG61X1 iQ1:SiliconNXG274UTiSiXG269X1 1.0621e-23
C_1_118 BLB:LM00Cobalt2XG64ULM40Cobalt5XG61X1 iQ1:n1d 2.9276e-22
C_1_119 BLB:LM00Cobalt2XG64ULM40Cobalt5XG61X1 iQ1:n2s 2.9276e-22
C_1_120 BLB:LM00Cobalt2XG64ULM40Cobalt5XG61X1 iQ1:n4g 9.1155e-22
C_1_121 BLB:LM00Cobalt2XG64ULM40Cobalt5XG61X1 iQ1:p1d 6.2484e-22
C_1_122 BLB:LM00Cobalt2XG64ULM40Cobalt5XG61X1 iQ1:p2g 5.8561e-22
C_1_123 BLB:LM00Cobalt2XG64ULM40Cobalt5XG61X1 iQ2:LM00Cobalt2XG118ULM10Tungsten1XG129X1 7.2750e-19
C_1_124 BLB:LM00Cobalt2XG64ULM40Cobalt5XG61X1 iQ2:LM00Cobalt2XG118USiGeBXG261X1 2.6488e-19
C_1_125 BLB:LM00Cobalt2XG64ULM40Cobalt5XG61X1 iQ2:LM00Cobalt2XG118UTiSiXG271X1 2.6462e-19
C_1_126 BLB:LM00Cobalt2XG64ULM40Cobalt5XG61X1 iQ2:LM00Cobalt2XG118UTiSiXG272X1 2.6466e-19
C_1_127 BLB:LM00Cobalt2XG64ULM40Cobalt5XG61X1 iQ2:SDexcludeXG242UTiSiXG271X1 1.0093e-21
C_1_128 BLB:LM00Cobalt2XG64ULM40Cobalt5XG61X1 iQ2:SDexcludeXG246UTiSiXG272X1 7.1036e-22
C_1_129 BLB:LM00Cobalt2XG64ULM40Cobalt5XG61X1 iQ2:SiGeBXG261UTiSiXG271X1 2.6358e-22
C_1_130 BLB:LM00Cobalt2XG64ULM40Cobalt5XG61X1 iQ2:SiGeBXG262UTiSiXG271X1 4.1531e-24
C_1_131 BLB:LM00Cobalt2XG64ULM40Cobalt5XG61X1 iQ2:SiGeBXG265UTiSiXG271X1 4.1420e-24
C_1_132 BLB:LM00Cobalt2XG64ULM40Cobalt5XG61X1 iQ2:SiliconNXG276UTiSiXG272X1 2.3814e-22
C_1_133 BLB:LM00Cobalt2XG64ULM40Cobalt5XG61X1 iQ2:n1g 4.4382e-22
C_1_134 BLB:LM00Cobalt2XG64ULM40Cobalt5XG61X1 iQ2:n3d 8.5777e-22
C_1_135 BLB:LM00Cobalt2XG64ULM40Cobalt5XG61X1 iQ2:n4s 8.5777e-22
C_1_136 BLB:LM00Cobalt2XG64ULM40Cobalt5XG61X1 iQ2:p1g 1.3605e-21
C_1_137 BLB:LM00Cobalt2XG64ULM40Cobalt5XG61X1 iQ2:p2s 1.2646e-21
C_1_138 BLB:LM00Cobalt2XG64UTiSiXG68X1 WL:LM00Cobalt2XG307ULM10Tungsten1XG322X1 7.6761e-22
C_1_139 BLB:LM00Cobalt2XG64UTiSiXG68X1 WL:LM00Cobalt2XG307ULM40Cobalt5XG251X1 1.4804e-24
C_1_140 BLB:LM00Cobalt2XG64UTiSiXG68X1 WL:LM00Cobalt2XG84ULM10Tungsten1XG144X1 1.3684e-18
C_1_141 BLB:LM00Cobalt2XG64UTiSiXG68X1 WL:LM00Cobalt2XG84ULM40Cobalt5XG76X1 3.7244e-19
C_1_142 BLB:LM00Cobalt2XG64UTiSiXG68X1 WL:LM20Cobalt3XG283ULM30Cobalt4XG102X1 1.7740e-21
C_1_143 BLB:LM00Cobalt2XG64UTiSiXG68X1 WL:LM20Cobalt3XG283ULM40Cobalt5XG251X1 6.5673e-25
C_1_144 BLB:LM00Cobalt2XG64UTiSiXG68X1 WL:LM20Cobalt3XG81ULM30Cobalt4XG102X1 6.3807e-21
C_1_145 BLB:LM00Cobalt2XG64UTiSiXG68X1 WL:LM20Cobalt3XG81ULM40Cobalt5XG76X1 2.0375e-19
C_1_146 BLB:LM00Cobalt2XG64UTiSiXG68X1 WL:n2g 2.9652e-22
C_1_147 BLB:LM00Cobalt2XG64UTiSiXG68X1 WL:n3g 9.8875e-20
C_1_148 BLB:LM00Cobalt2XG64UTiSiXG68X1 iQ1:LM00Cobalt2XG275ULM10Tungsten1XG323X1 3.6215e-21
C_1_149 BLB:LM00Cobalt2XG64UTiSiXG68X1 iQ1:LM00Cobalt2XG275USiGeBXG256X1 1.6906e-22
C_1_150 BLB:LM00Cobalt2XG64UTiSiXG68X1 iQ1:LM00Cobalt2XG275UTiSiXG269X1 1.5353e-22
C_1_151 BLB:LM00Cobalt2XG64UTiSiXG68X1 iQ1:LM00Cobalt2XG275UTiSiXG270X1 1.5357e-22
C_1_152 BLB:LM00Cobalt2XG64UTiSiXG68X1 iQ1:SDexcludeXG241UTiSiXG270X1 5.8440e-22
C_1_153 BLB:LM00Cobalt2XG64UTiSiXG68X1 iQ1:SDexcludeXG245UTiSiXG269X1 2.7319e-22
C_1_154 BLB:LM00Cobalt2XG64UTiSiXG68X1 iQ1:SiGeBXG256UTiSiXG270X1 1.5597e-23
C_1_155 BLB:LM00Cobalt2XG64UTiSiXG68X1 iQ1:SiGeBXG257UTiSiXG270X1 5.6272e-26
C_1_156 BLB:LM00Cobalt2XG64UTiSiXG68X1 iQ1:SiGeBXG260UTiSiXG270X1 5.4324e-26
C_1_157 BLB:LM00Cobalt2XG64UTiSiXG68X1 iQ1:SiGeBXG286UTiSiXG270X1 6.7846e-26
C_1_158 BLB:LM00Cobalt2XG64UTiSiXG68X1 iQ1:SiGeBXG290UTiSiXG270X1 5.4040e-26
C_1_159 BLB:LM00Cobalt2XG64UTiSiXG68X1 iQ1:SiliconNXG274UTiSiXG269X1 1.0147e-23
C_1_160 BLB:LM00Cobalt2XG64UTiSiXG68X1 iQ1:n1d 2.8332e-22
C_1_161 BLB:LM00Cobalt2XG64UTiSiXG68X1 iQ1:n2s 2.8332e-22
C_1_162 BLB:LM00Cobalt2XG64UTiSiXG68X1 iQ1:n4g 4.6658e-22
C_1_163 BLB:LM00Cobalt2XG64UTiSiXG68X1 iQ1:p1d 5.9989e-22