*|TITLE Netlist generated by Raphael FX rcnetmerge
*|TITLE 1.1
*|TITLE Date Fri Apr 23 15:37:34 PDT 2021
*|PARAM cellnamefrom= raphaelfx
*|PARAM include= {}
*|PARAM instancefrom= raphaelnet
*|PARAM outputnet= n940_rph.spf
*|PARAM pingroup=  WL {WLL WLR} BL {BLU BLD} BLB {BLBU BLBD} 
*|PARAM pinsfrom= raphaelfx
*|PARAM raphaelnet= n940_rph.spi
*|PARAM referencenet= /nfs/pdx/disks/icf_sandp_gwa001/changyok/swb/SNPS_DTCO/TRD2/20201220/BIC2022_update20210412/2-RC_Extraction/2.01-BIC2022_FinFET_PEX_Nominal/sram_hc_wide.lvs

.SUBCKT array BLBD BLBU BLD BLU VDD VSS WLL WLR VBP VBN

*|NETS BL BLB VDD VSS WL iQ1 iQ2

*|CAPACITANCE GRAND SUM 2.9665e-04PF
*|BLB WL 2.3946e-05PF
*|BLB iQ1 8.5392e-07PF
*|BLB iQ2 5.9512e-06PF
*|BL BLB 1.2597e-07PF
*|BL WL 2.4035e-05PF
*|BL iQ1 6.0223e-06PF
*|BL iQ2 8.5423e-07PF
*|VDD BL 8.7454e-06PF
*|VDD BLB 8.7089e-06PF
*|VDD VSS 1.1414e-05PF
*|VDD WL 8.2378e-06PF
*|VDD iQ1 1.4517e-05PF
*|VDD iQ2 1.4526e-05PF
*|VSS BL 8.7961e-06PF
*|VSS BLB 9.1010e-06PF
*|VSS WL 2.6127e-05PF
*|VSS iQ1 1.5677e-05PF
*|VSS iQ2 1.5681e-05PF
*|WL iQ1 2.1840e-05PF
*|WL iQ2 2.1519e-05PF
*|iQ1 iQ2 4.9967e-05PF

*|NET BL 4.8579e-05PF
C_0_0 BLBD BLD 7.6364e-22
C_0_1 BLBD BLU 7.6364e-22
C_0_2 BLBD BL:LM00Cobalt2XG535ULM40Cobalt5XG46X1 1.3777e-21
C_0_3 BLBD BL:LM00Cobalt2XG535UTiSiXG524X1 6.2116e-22
C_0_4 BLBD BL:SiliconNXG516UTiSiXG524X1 1.5275e-22
C_0_5 BLBD BL:n2d 2.7282e-22
C_0_6 BLBU BLD 7.6364e-22
C_0_7 BLBU BLU 7.6364e-22
C_0_8 BLBU BL:LM00Cobalt2XG535ULM40Cobalt5XG46X1 1.3777e-21
C_0_9 BLBU BL:LM00Cobalt2XG535UTiSiXG524X1 6.2116e-22
C_0_10 BLBU BL:SiliconNXG516UTiSiXG524X1 1.5275e-22
C_0_11 BLBU BL:n2d 2.7282e-22
C_0_12 BLD WLL 3.6147e-19
C_0_13 BLD WLR 3.6147e-19
C_0_14 BLD BLB:LM00Cobalt2XG71ULM40Cobalt5XG77X1 1.3609e-21
C_0_15 BLD BLB:LM00Cobalt2XG71UTiSiXG73X1 6.0485e-22
C_0_16 BLD BLB:SiliconNXG72UTiSiXG73X1 1.5984e-22
C_0_17 BLD BLB:n3s 2.8186e-22
C_0_18 BLD WL:LM00Cobalt2XG101ULM10Tungsten1XG167X1 1.5821e-22
C_0_19 BLD WL:LM00Cobalt2XG101ULM40Cobalt5XG89X1 1.5817e-23
C_0_20 BLD WL:LM00Cobalt2XG350ULM10Tungsten1XG367X1 1.5371e-19
C_0_21 BLD WL:LM00Cobalt2XG350ULM40Cobalt5XG279X1 8.1812e-19
C_0_22 BLD WL:LM20Cobalt3XG320ULM30Cobalt4XG123X1 5.0530e-19
C_0_23 BLD WL:LM20Cobalt3XG320ULM40Cobalt5XG279X1 9.1292e-19
C_0_24 BLD WL:LM20Cobalt3XG97ULM30Cobalt4XG123X1 3.6147e-19
C_0_25 BLD WL:LM20Cobalt3XG97ULM40Cobalt5XG89X1 1.5897e-23
C_0_26 BLD WL:n2g 7.2280e-22
C_0_27 BLD WL:n3g 3.9718e-23
C_0_28 BLD iQ1:LM00Cobalt2XG308ULM10Tungsten1XG368X1 2.3695e-19
C_0_29 BLD iQ1:LM00Cobalt2XG308USiGeBXG285X1 2.1612e-19
C_0_30 BLD iQ1:LM00Cobalt2XG308UTiSiXG295X1 2.1612e-19
C_0_31 BLD iQ1:LM00Cobalt2XG308UTiSiXG296X1 2.1611e-19
C_0_32 BLD iQ1:SDexcludeXG264UTiSiXG296X1 5.6409e-23
C_0_33 BLD iQ1:SDexcludeXG271UTiSiXG295X1 5.6722e-23
C_0_34 BLD iQ1:SDexcludeXG272UTiSiXG295X1 5.7852e-23
C_0_35 BLD iQ1:SiGeBXG285UTiSiXG296X1 1.2112e-23
C_0_36 BLD iQ1:SiGeBXG286UTiSiXG296X1 4.2839e-25
C_0_37 BLD iQ1:SiGeBXG323UTiSiXG296X1 4.2361e-25
C_0_38 BLD iQ1:SiGeBXG327UTiSiXG296X1 4.2356e-25
C_0_39 BLD iQ1:SiliconNXG302UTiSiXG295X1 3.5791e-23
C_0_40 BLD iQ1:n1d 1.0639e-22
C_0_41 BLD iQ1:n2s 1.0639e-22
C_0_42 BLD iQ1:n4g 3.6640e-23
C_0_43 BLD iQ1:p1d 6.7674e-23
C_0_44 BLD iQ1:p2g 6.6420e-23
C_0_45 BLD iQ2:LM00Cobalt2XG153ULM10Tungsten1XG151X1 1.5716e-19
C_0_46 BLD iQ2:LM00Cobalt2XG153USiGeBXG288X1 3.0831e-22
C_0_47 BLD iQ2:LM00Cobalt2XG153UTiSiXG299X1 3.0517e-22
C_0_48 BLD iQ2:LM00Cobalt2XG153UTiSiXG300X1 3.0513e-22
C_0_49 BLD iQ2:SDexcludeXG265UTiSiXG299X1 3.5567e-23
C_0_50 BLD iQ2:SDexcludeXG273UTiSiXG300X1 1.4743e-23
C_0_51 BLD iQ2:SDexcludeXG274UTiSiXG300X1 1.2952e-23
C_0_52 BLD iQ2:SiGeBXG288UTiSiXG299X1 3.2323e-24
C_0_53 BLD iQ2:SiGeBXG290UTiSiXG299X1 5.0340e-26
C_0_54 BLD iQ2:SiGeBXG328UTiSiXG299X1 4.9463e-26
C_0_55 BLD iQ2:SiliconNXG305UTiSiXG300X1 8.2491e-25
C_0_56 BLD iQ2:n1g 5.7530e-22
C_0_57 BLD iQ2:n3d 2.8501e-23
C_0_58 BLD iQ2:n4s 2.8501e-23
C_0_59 BLD iQ2:p1g 1.2742e-22
C_0_60 BLD iQ2:p2s 3.8702e-23
C_0_61 BLU WLL 3.6147e-19
C_0_62 BLU WLR 3.6147e-19
C_0_63 BLU BLB:LM00Cobalt2XG71ULM40Cobalt5XG77X1 1.3609e-21
C_0_64 BLU BLB:LM00Cobalt2XG71UTiSiXG73X1 6.0485e-22
C_0_65 BLU BLB:SiliconNXG72UTiSiXG73X1 1.5984e-22
C_0_66 BLU BLB:n3s 2.8186e-22
C_0_67 BLU WL:LM00Cobalt2XG101ULM10Tungsten1XG167X1 1.5821e-22
C_0_68 BLU WL:LM00Cobalt2XG101ULM40Cobalt5XG89X1 1.5817e-23
C_0_69 BLU WL:LM00Cobalt2XG350ULM10Tungsten1XG367X1 1.5371e-19
C_0_70 BLU WL:LM00Cobalt2XG350ULM40Cobalt5XG279X1 8.1812e-19
C_0_71 BLU WL:LM20Cobalt3XG320ULM30Cobalt4XG123X1 5.0530e-19
C_0_72 BLU WL:LM20Cobalt3XG320ULM40Cobalt5XG279X1 9.1292e-19
C_0_73 BLU WL:LM20Cobalt3XG97ULM30Cobalt4XG123X1 3.6147e-19
C_0_74 BLU WL:LM20Cobalt3XG97ULM40Cobalt5XG89X1 1.5897e-23
C_0_75 BLU WL:n2g 7.2280e-22
C_0_76 BLU WL:n3g 3.9718e-23
C_0_77 BLU iQ1:LM00Cobalt2XG308ULM10Tungsten1XG368X1 2.3695e-19
C_0_78 BLU iQ1:LM00Cobalt2XG308USiGeBXG285X1 2.1612e-19
C_0_79 BLU iQ1:LM00Cobalt2XG308UTiSiXG295X1 2.1612e-19
C_0_80 BLU iQ1:LM00Cobalt2XG308UTiSiXG296X1 2.1611e-19
C_0_81 BLU iQ1:SDexcludeXG264UTiSiXG296X1 5.6409e-23
C_0_82 BLU iQ1:SDexcludeXG271UTiSiXG295X1 5.6722e-23
C_0_83 BLU iQ1:SDexcludeXG272UTiSiXG295X1 5.7852e-23
C_0_84 BLU iQ1:SiGeBXG285UTiSiXG296X1 1.2112e-23
C_0_85 BLU iQ1:SiGeBXG286UTiSiXG296X1 4.2839e-25
C_0_86 BLU iQ1:SiGeBXG323UTiSiXG296X1 4.2361e-25
C_0_87 BLU iQ1:SiGeBXG327UTiSiXG296X1 4.2356e-25
C_0_88 BLU iQ1:SiliconNXG302UTiSiXG295X1 3.5791e-23
C_0_89 BLU iQ1:n1d 1.0639e-22
C_0_90 BLU iQ1:n2s 1.0639e-22
C_0_91 BLU iQ1:n4g 3.6640e-23
C_0_92 BLU iQ1:p1d 6.7674e-23
C_0_93 BLU iQ1:p2g 6.6420e-23
C_0_94 BLU iQ2:LM00Cobalt2XG153ULM10Tungsten1XG151X1 1.5716e-19
C_0_95 BLU iQ2:LM00Cobalt2XG153USiGeBXG288X1 3.0831e-22
C_0_96 BLU iQ2:LM00Cobalt2XG153UTiSiXG299X1 3.0517e-22
C_0_97 BLU iQ2:LM00Cobalt2XG153UTiSiXG300X1 3.0513e-22
C_0_98 BLU iQ2:SDexcludeXG265UTiSiXG299X1 3.5567e-23
C_0_99 BLU iQ2:SDexcludeXG273UTiSiXG300X1 1.4743e-23
C_0_100 BLU iQ2:SDexcludeXG274UTiSiXG300X1 1.2952e-23
C_0_101 BLU iQ2:SiGeBXG288UTiSiXG299X1 3.2323e-24
C_0_102 BLU iQ2:SiGeBXG290UTiSiXG299X1 5.0340e-26
C_0_103 BLU iQ2:SiGeBXG328UTiSiXG299X1 4.9463e-26
C_0_104 BLU iQ2:SiliconNXG305UTiSiXG300X1 8.2491e-25
C_0_105 BLU iQ2:n1g 5.7530e-22
C_0_106 BLU iQ2:n3d 2.8501e-23
C_0_107 BLU iQ2:n4s 2.8501e-23
C_0_108 BLU iQ2:p1g 1.2742e-22
C_0_109 BLU iQ2:p2s 3.8702e-23
C_0_110 WLL BL:LM00Cobalt2XG535ULM40Cobalt5XG46X1 3.6277e-19
C_0_111 WLL BL:LM00Cobalt2XG535UTiSiXG524X1 1.3114e-21
C_0_112 WLL BL:SiliconNXG516UTiSiXG524X1 1.3653e-22
C_0_113 WLL BL:n2d 1.4670e-22
C_0_114 WLR BL:LM00Cobalt2XG535ULM40Cobalt5XG46X1 3.6277e-19
C_0_115 WLR BL:LM00Cobalt2XG535UTiSiXG524X1 1.3114e-21
C_0_116 WLR BL:SiliconNXG516UTiSiXG524X1 1.3653e-22
C_0_117 WLR BL:n2d 1.4670e-22
C_0_118 BL:LM00Cobalt2XG535ULM40Cobalt5XG46X1 BLB:LM00Cobalt2XG71ULM40Cobalt5XG77X1 1.9934e-21
C_0_119 BL:LM00Cobalt2XG535ULM40Cobalt5XG46X1 BLB:LM00Cobalt2XG71UTiSiXG73X1 6.2442e-22
C_0_120 BL:LM00Cobalt2XG535ULM40Cobalt5XG46X1 BLB:SiliconNXG72UTiSiXG73X1 3.2974e-22
C_0_121 BL:LM00Cobalt2XG535ULM40Cobalt5XG46X1 BLB:n3s 1.5459e-21
C_0_122 BL:LM00Cobalt2XG535ULM40Cobalt5XG46X1 WL:LM00Cobalt2XG101ULM10Tungsten1XG167X1 8.2783e-22
C_0_123 BL:LM00Cobalt2XG535ULM40Cobalt5XG46X1 WL:LM00Cobalt2XG101ULM40Cobalt5XG89X1 1.7081e-23
C_0_124 BL:LM00Cobalt2XG535ULM40Cobalt5XG46X1 WL:LM00Cobalt2XG350ULM10Tungsten1XG367X1 2.2885e-18
C_0_125 BL:LM00Cobalt2XG535ULM40Cobalt5XG46X1 WL:LM00Cobalt2XG350ULM40Cobalt5XG279X1 1.1216e-18
C_0_126 BL:LM00Cobalt2XG535ULM40Cobalt5XG46X1 WL:LM20Cobalt3XG320ULM30Cobalt4XG123X1 5.1360e-19
C_0_127 BL:LM00Cobalt2XG535ULM40Cobalt5XG46X1 WL:LM20Cobalt3XG320ULM40Cobalt5XG279X1 1.0056e-18
C_0_128 BL:LM00Cobalt2XG535ULM40Cobalt5XG46X1 WL:LM20Cobalt3XG97ULM30Cobalt4XG123X1 3.6277e-19
C_0_129 BL:LM00Cobalt2XG535ULM40Cobalt5XG46X1 WL:LM20Cobalt3XG97ULM40Cobalt5XG89X1 1.6407e-23
C_0_130 BL:LM00Cobalt2XG535ULM40Cobalt5XG46X1 WL:n2g 1.8262e-19
C_0_131 BL:LM00Cobalt2XG535ULM40Cobalt5XG46X1 WL:n3g 4.6592e-22
C_0_132 BL:LM00Cobalt2XG535ULM40Cobalt5XG46X1 iQ1:LM00Cobalt2XG308ULM10Tungsten1XG368X1 7.6690e-19
C_0_133 BL:LM00Cobalt2XG535ULM40Cobalt5XG46X1 iQ1:LM00Cobalt2XG308USiGeBXG285X1 3.0706e-19
C_0_134 BL:LM00Cobalt2XG535ULM40Cobalt5XG46X1 iQ1:LM00Cobalt2XG308UTiSiXG295X1 3.0678e-19
C_0_135 BL:LM00Cobalt2XG535ULM40Cobalt5XG46X1 iQ1:LM00Cobalt2XG308UTiSiXG296X1 3.0675e-19
C_0_136 BL:LM00Cobalt2XG535ULM40Cobalt5XG46X1 iQ1:SDexcludeXG264UTiSiXG296X1 9.8306e-22
C_0_137 BL:LM00Cobalt2XG535ULM40Cobalt5XG46X1 iQ1:SDexcludeXG271UTiSiXG295X1 5.8639e-22
C_0_138 BL:LM00Cobalt2XG535ULM40Cobalt5XG46X1 iQ1:SDexcludeXG272UTiSiXG295X1 6.3907e-22
C_0_139 BL:LM00Cobalt2XG535ULM40Cobalt5XG46X1 iQ1:SiGeBXG285UTiSiXG296X1 3.2135e-22
C_0_140 BL:LM00Cobalt2XG535ULM40Cobalt5XG46X1 iQ1:SiGeBXG286UTiSiXG296X1 3.1820e-24
C_0_141 BL:LM00Cobalt2XG535ULM40Cobalt5XG46X1 iQ1:SiGeBXG323UTiSiXG296X1 3.1773e-24
C_0_142 BL:LM00Cobalt2XG535ULM40Cobalt5XG46X1 iQ1:SiGeBXG327UTiSiXG296X1 3.1765e-24
C_0_143 BL:LM00Cobalt2XG535ULM40Cobalt5XG46X1 iQ1:SiliconNXG302UTiSiXG295X1 2.5116e-22
C_0_144 BL:LM00Cobalt2XG535ULM40Cobalt5XG46X1 iQ1:n1d 1.3606e-21
C_0_145 BL:LM00Cobalt2XG535ULM40Cobalt5XG46X1 iQ1:n2s 1.3606e-21
C_0_146 BL:LM00Cobalt2XG535ULM40Cobalt5XG46X1 iQ1:n4g 6.1196e-22
C_0_147 BL:LM00Cobalt2XG535ULM40Cobalt5XG46X1 iQ1:p1d 1.2981e-21
C_0_148 BL:LM00Cobalt2XG535ULM40Cobalt5XG46X1 iQ1:p2g 1.3212e-21
C_0_149 BL:LM00Cobalt2XG535ULM40Cobalt5XG46X1 iQ2:LM00Cobalt2XG153ULM10Tungsten1XG151X1 1.6058e-19
C_0_150 BL:LM00Cobalt2XG535ULM40Cobalt5XG46X1 iQ2:LM00Cobalt2XG153USiGeBXG288X1 4.6604e-22
C_0_151 BL:LM00Cobalt2XG535ULM40Cobalt5XG46X1 iQ2:LM00Cobalt2XG153UTiSiXG299X1 4.4912e-22
C_0_152 BL:LM00Cobalt2XG535ULM40Cobalt5XG46X1 iQ2:LM00Cobalt2XG153UTiSiXG300X1 4.4902e-22
C_0_153 BL:LM00Cobalt2XG535ULM40Cobalt5XG46X1 iQ2:SDexcludeXG265UTiSiXG299X1 5.6294e-22
C_0_154 BL:LM00Cobalt2XG535ULM40Cobalt5XG46X1 iQ2:SDexcludeXG273UTiSiXG300X1 2.2681e-22
C_0_155 BL:LM00Cobalt2XG535ULM40Cobalt5XG46X1 iQ2:SDexcludeXG274UTiSiXG300X1 2.0119e-22
C_0_156 BL:LM00Cobalt2XG535ULM40Cobalt5XG46X1 iQ2:SiGeBXG288UTiSiXG299X1 1.7154e-23
C_0_157 BL:LM00Cobalt2XG535ULM40Cobalt5XG46X1 iQ2:SiGeBXG290UTiSiXG299X1 1.2448e-25
C_0_158 BL:LM00Cobalt2XG535ULM40Cobalt5XG46X1 iQ2:SiGeBXG328UTiSiXG299X1 1.2070e-25
C_0_159 BL:LM00Cobalt2XG535ULM40Cobalt5XG46X1 iQ2:SiliconNXG305UTiSiXG300X1 1.1322e-23
C_0_160 BL:LM00Cobalt2XG535ULM40Cobalt5XG46X1 iQ2:n1g 1.3386e-21
C_0_161 BL:LM00Cobalt2XG535ULM40Cobalt5XG46X1 iQ2:n3d 4.3925e-22
C_0_162 BL:LM00Cobalt2XG535ULM40Cobalt5XG46X1 iQ2:n4s 4.3925e-22
C_0_163 BL:LM00Cobalt2XG535ULM40Cobalt5XG46X1 iQ2:p1g 4.7465e-22
C_0_164 BL:LM00Cobalt2XG535ULM40Cobalt5XG46X1 iQ2:p2s 5.7985e-22
C_0_165 BL:LM00Cobalt2XG535UTiSiXG524X1 BLB:LM00Cobalt2XG71ULM40Cobalt5XG77X1 6.4066e-22
C_0_166 BL:LM00Cobalt2XG535UTiSiXG524X1 BLB:LM00Cobalt2XG71UTiSiXG73X1 2.0710e-23
C_0_167 BL:LM00Cobalt2XG535UTiSiXG524X1 BLB:SiliconNXG72UTiSiXG73X1 1.7985e-22
C_0_168 BL:LM00Cobalt2XG535UTiSiXG524X1 BLB:n3s 1.3376e-21
C_0_169 BL:LM00Cobalt2XG535UTiSiXG524X1 WL:LM00Cobalt2XG101ULM10Tungsten1XG167X1 7.0822e-22
C_0_170 BL:LM00Cobalt2XG535UTiSiXG524X1 WL:LM00Cobalt2XG101ULM40Cobalt5XG89X1 1.3342e-24
C_0_171 BL:LM00Cobalt2XG535UTiSiXG524X1 WL:LM00Cobalt2XG350ULM10Tungsten1XG367X1 2.1520e-18
C_0_172 BL:LM00Cobalt2XG535UTiSiXG524X1 WL:LM00Cobalt2XG350ULM40Cobalt5XG279X1 3.0485e-19
C_0_173 BL:LM00Cobalt2XG535UTiSiXG524X1 WL:LM20Cobalt3XG320ULM30Cobalt4XG123X1 8.3509e-21
C_0_174 BL:LM00Cobalt2XG535UTiSiXG524X1 WL:LM20Cobalt3XG320ULM40Cobalt5XG279X1 9.3105e-20
C_0_175 BL:LM00Cobalt2XG535UTiSiXG524X1 WL:LM20Cobalt3XG97ULM30Cobalt4XG123X1 1.3115e-21
C_0_176 BL:LM00Cobalt2XG535UTiSiXG524X1 WL:LM20Cobalt3XG97ULM40Cobalt5XG89X1 5.3539e-25
C_0_177 BL:LM00Cobalt2XG535UTiSiXG524X1 WL:n2g 1.8935e-19
C_0_178 BL:LM00Cobalt2XG535UTiSiXG524X1 WL:n3g 4.5078e-22
C_0_179 BL:LM00Cobalt2XG535UTiSiXG524X1 iQ1:LM00Cobalt2XG308ULM10Tungsten1XG368X1 5.3605e-19
C_0_180 BL:LM00Cobalt2XG535UTiSiXG524X1 iQ1:LM00Cobalt2XG308USiGeBXG285X1 9.1104e-20
C_0_181 BL:LM00Cobalt2XG535UTiSiXG524X1 iQ1:LM00Cobalt2XG308UTiSiXG295X1 9.0818e-20
C_0_182 BL:LM00Cobalt2XG535UTiSiXG524X1 iQ1:LM00Cobalt2XG308UTiSiXG296X1 9.0796e-20
C_0_183 BL:LM00Cobalt2XG535UTiSiXG524X1 iQ1:SDexcludeXG264UTiSiXG296X1 9.7575e-22
C_0_184 BL:LM00Cobalt2XG535UTiSiXG524X1 iQ1:SDexcludeXG271UTiSiXG295X1 5.6306e-22
C_0_185 BL:LM00Cobalt2XG535UTiSiXG524X1 iQ1:SDexcludeXG272UTiSiXG295X1 6.1530e-22
C_0_186 BL:LM00Cobalt2XG535UTiSiXG524X1 iQ1:SiGeBXG285UTiSiXG296X1 3.1355e-22
C_0_187 BL:LM00Cobalt2XG535UTiSiXG524X1 iQ1:SiGeBXG286UTiSiXG296X1 2.7691e-24
C_0_188 BL:LM00Cobalt2XG535UTiSiXG524X1 iQ1:SiGeBXG323UTiSiXG296X1 2.7692e-24
C_0_189 BL:LM00Cobalt2XG535UTiSiXG524X1 iQ1:SiGeBXG327UTiSiXG296X1 2.7684e-24
C_0_190 BL:LM00Cobalt2XG535UTiSiXG524X1 iQ1:SiliconNXG302UTiSiXG295X1 2.1900e-22
C_0_191 BL:LM00Cobalt2XG535UTiSiXG524X1 iQ1:n1d 1.3251e-21
C_0_192 BL:LM00Cobalt2XG535UTiSiXG524X1 iQ1:n2s 1.3251e-21
C_0_193 BL:LM00Cobalt2XG535UTiSiXG524X1 iQ1:n4g 6.0571e-22
C_0_194 BL:LM00Cobalt2XG535UTiSiXG524X1 iQ1:p1d 1.2838e-21
C_0_195 BL:LM00Cobalt2XG535UTiSiXG524X1 iQ1:p2g 1.3058e-21
C_0_196 BL:LM00Cobalt2XG535UTiSiXG524X1 iQ2:LM00Cobalt2XG153ULM10Tungsten1XG151X1 3.5946e-21
C_0_197 BL:LM00Cobalt2XG535UTiSiXG524X1 iQ2:LM00Cobalt2XG153USiGeBXG288X1 1.5965e-22
C_0_198 BL:LM00Cobalt2XG535UTiSiXG524X1 iQ2:LM00Cobalt2XG153UTiSiXG299X1 1.4520e-22
C_0_199 BL:LM00Cobalt2XG535UTiSiXG524X1 iQ2:LM00Cobalt2XG153UTiSiXG300X1 1.4514e-22
C_0_200 BL:LM00Cobalt2XG535UTiSiXG524X1 iQ2:SDexcludeXG265UTiSiXG299X1 5.5605e-22
C_0_201 BL:LM00Cobalt2XG535UTiSiXG524X1 iQ2:SDexcludeXG273UTiSiXG300X1 2.2396e-22
C_0_202 BL:LM00Cobalt2XG535UTiSiXG524X1 iQ2:SDexcludeXG274UTiSiXG300X1 1.9894e-22
C_0_203 BL:LM00Cobalt2XG535UTiSiXG524X1 iQ2:SiGeBXG288UTiSiXG299X1 1.4594e-23
C_0_204 BL:LM00Cobalt2XG535UTiSiXG524X1 iQ2:SiGeBXG290UTiSiXG299X1 7.4807e-26
C_0_205 BL:LM00Cobalt2XG535UTiSiXG524X1 iQ2:SiGeBXG328UTiSiXG299X1 7.1843e-26
C_0_206 BL:LM00Cobalt2XG535UTiSiXG524X1 iQ2:SiliconNXG305UTiSiXG300X1 1.1089e-23
C_0_207 BL:LM00Cobalt2XG535UTiSiXG524X1 iQ2:n1g 8.1129e-22
C_0_208 BL:LM00Cobalt2XG535UTiSiXG524X1 iQ2:n3d 4.3394e-22
C_0_209 BL:LM00Cobalt2XG535UTiSiXG524X1 iQ2:n4s 4.3394e-22
C_0_210 BL:LM00Cobalt2XG535UTiSiXG524X1 iQ2:p1g 3.6746e-22
C_0_211 BL:LM00Cobalt2XG535UTiSiXG524X1 iQ2:p2s 5.7050e-22
C_0_212 BL:SiliconNXG516UTiSiXG524X1 BLB:LM00Cobalt2XG71ULM40Cobalt5XG77X1 3.1403e-22
C_0_213 BL:SiliconNXG516UTiSiXG524X1 BLB:LM00Cobalt2XG71UTiSiXG73X1 1.7134e-22
C_0_214 BL:SiliconNXG516UTiSiXG524X1 BLB:SiliconNXG72UTiSiXG73X1 1.4792e-21
C_0_215 BL:SiliconNXG516UTiSiXG524X1 BLB:n3s 1.0903e-20
C_0_216 BL:SiliconNXG516UTiSiXG524X1 WL:LM00Cobalt2XG101ULM10Tungsten1XG167X1 5.6393e-21
C_0_217 BL:SiliconNXG516UTiSiXG524X1 WL:LM00Cobalt2XG101ULM40Cobalt5XG89X1 1.0233e-23
C_0_218 BL:SiliconNXG516UTiSiXG524X1 WL:LM00Cobalt2XG350ULM10Tungsten1XG367X1 2.3327e-18
C_0_219 BL:SiliconNXG516UTiSiXG524X1 WL:LM00Cobalt2XG350ULM40Cobalt5XG279X1 6.6920e-20
C_0_220 BL:SiliconNXG516UTiSiXG524X1 WL:LM20Cobalt3XG320ULM30Cobalt4XG123X1 1.2112e-21
C_0_221 BL:SiliconNXG516UTiSiXG524X1 WL:LM20Cobalt3XG320ULM40Cobalt5XG279X1 1.0842e-20
C_0_222 BL:SiliconNXG516UTiSiXG524X1 WL:LM20Cobalt3XG97ULM30Cobalt4XG123X1 1.3659e-22
C_0_223 BL:SiliconNXG516UTiSiXG524X1 WL:LM20Cobalt3XG97ULM40Cobalt5XG89X1 3.5931e-24
C_0_224 BL:SiliconNXG516UTiSiXG524X1 WL:n2g 7.4548e-21
C_0_225 BL:SiliconNXG516UTiSiXG524X1 WL:n3g 2.4583e-23
C_0_226 BL:SiliconNXG516UTiSiXG524X1 iQ1:LM00Cobalt2XG308ULM10Tungsten1XG368X1 3.0110e-19
C_0_227 BL:SiliconNXG516UTiSiXG524X1 iQ1:LM00Cobalt2XG308USiGeBXG285X1 3.7600e-21
C_0_228 BL:SiliconNXG516UTiSiXG524X1 iQ1:LM00Cobalt2XG308UTiSiXG295X1 3.1856e-21
C_0_229 BL:SiliconNXG516UTiSiXG524X1 iQ1:LM00Cobalt2XG308UTiSiXG296X1 3.1800e-21
C_0_230 BL:SiliconNXG516UTiSiXG524X1 iQ1:SDexcludeXG264UTiSiXG296X1 6.8256e-21
C_0_231 BL:SiliconNXG516UTiSiXG524X1 iQ1:SDexcludeXG271UTiSiXG295X1 6.5124e-21
C_0_232 BL:SiliconNXG516UTiSiXG524X1 iQ1:SDexcludeXG272UTiSiXG295X1 5.9446e-21
C_0_233 BL:SiliconNXG516UTiSiXG524X1 iQ1:SiGeBXG285UTiSiXG296X1 5.8244e-22
C_0_234 BL:SiliconNXG516UTiSiXG524X1 iQ1:SiGeBXG286UTiSiXG296X1 1.2544e-24
C_0_235 BL:SiliconNXG516UTiSiXG524X1 iQ1:SiGeBXG323UTiSiXG296X1 1.2545e-24
C_0_236 BL:SiliconNXG516UTiSiXG524X1 iQ1:SiGeBXG327UTiSiXG296X1 1.2476e-24
C_0_237 BL:SiliconNXG516UTiSiXG524X1 iQ1:SiliconNXG302UTiSiXG295X1 5.6854e-22
C_0_238 BL:SiliconNXG516UTiSiXG524X1 iQ1:n1d 1.3005e-20
C_0_239 BL:SiliconNXG516UTiSiXG524X1 iQ1:n2s 1.3005e-20
C_0_240 BL:SiliconNXG516UTiSiXG524X1 iQ1:n4g 3.0389e-23
C_0_241 BL:SiliconNXG516UTiSiXG524X1 iQ1:p1d 7.4055e-21
C_0_242 BL:SiliconNXG516UTiSiXG524X1 iQ1:p2g 5.0950e-23
C_0_243 BL:SiliconNXG516UTiSiXG524X1 iQ2:LM00Cobalt2XG153ULM10Tungsten1XG151X1 2.3766e-20
C_0_244 BL:SiliconNXG516UTiSiXG524X1 iQ2:LM00Cobalt2XG153USiGeBXG288X1 1.1793e-22
C_0_245 BL:SiliconNXG516UTiSiXG524X1 iQ2:LM00Cobalt2XG153UTiSiXG299X1 2.8972e-23
C_0_246 BL:SiliconNXG516UTiSiXG524X1 iQ2:LM00Cobalt2XG153UTiSiXG300X1 2.9065e-23
C_0_247 BL:SiliconNXG516UTiSiXG524X1 iQ2:SDexcludeXG265UTiSiXG299X1 3.8174e-21
C_0_248 BL:SiliconNXG516UTiSiXG524X1 iQ2:SDexcludeXG273UTiSiXG300X1 1.6770e-21
C_0_249 BL:SiliconNXG516UTiSiXG524X1 iQ2:SDexcludeXG274UTiSiXG300X1 1.5402e-21
C_0_250 BL:SiliconNXG516UTiSiXG524X1 iQ2:SiGeBXG288UTiSiXG299X1 8.8980e-23
C_0_251 BL:SiliconNXG516UTiSiXG524X1 iQ2:SiGeBXG290UTiSiXG299X1 2.5668e-26
C_0_252 BL:SiliconNXG516UTiSiXG524X1 iQ2:SiGeBXG328UTiSiXG299X1 1.3617e-26
C_0_253 BL:SiliconNXG516UTiSiXG524X1 iQ2:SiliconNXG305UTiSiXG300X1 8.3507e-23
C_0_254 BL:SiliconNXG516UTiSiXG524X1 iQ2:n1g 4.8023e-23
C_0_255 BL:SiliconNXG516UTiSiXG524X1 iQ2:n3d 3.3004e-21
C_0_256 BL:SiliconNXG516UTiSiXG524X1 iQ2:n4s 3.3004e-21
C_0_257 BL:SiliconNXG516UTiSiXG524X1 iQ2:p1g 2.0231e-23
C_0_258 BL:SiliconNXG516UTiSiXG524X1 iQ2:p2s 3.9064e-21
C_0_259 BL:n2d BLB:LM00Cobalt2XG71ULM40Cobalt5XG77X1 1.4737e-21
C_0_260 BL:n2d BLB:LM00Cobalt2XG71UTiSiXG73X1 1.2757e-21
C_0_261 BL:n2d BLB:SiliconNXG72UTiSiXG73X1 1.0914e-20
C_0_262 BL:n2d BLB:n3s 8.0051e-20
C_0_263 BL:n2d WL:LM00Cobalt2XG101ULM10Tungsten1XG167X1 4.1053e-20
C_0_264 BL:n2d WL:LM00Cobalt2XG101ULM40Cobalt5XG89X1 7.5213e-23
C_0_265 BL:n2d WL:LM00Cobalt2XG350ULM10Tungsten1XG367X1 5.5776e-18
C_0_266 BL:n2d WL:LM00Cobalt2XG350ULM40Cobalt5XG279X1 7.2900e-20
C_0_267 BL:n2d WL:LM20Cobalt3XG320ULM30Cobalt4XG123X1 1.2803e-21
C_0_268 BL:n2d WL:LM20Cobalt3XG320ULM40Cobalt5XG279X1 1.1475e-20
C_0_269 BL:n2d WL:LM20Cobalt3XG97ULM30Cobalt4XG123X1 1.4719e-22
C_0_270 BL:n2d WL:LM20Cobalt3XG97ULM40Cobalt5XG89X1 2.6359e-23
C_0_271 BL:n2d iQ1:LM00Cobalt2XG308ULM10Tungsten1XG368X1 6.3467e-19
C_0_272 BL:n2d iQ1:LM00Cobalt2XG308USiGeBXG285X1 5.7102e-21
C_0_273 BL:n2d iQ1:LM00Cobalt2XG308UTiSiXG295X1 3.8241e-21
C_0_274 BL:n2d iQ1:LM00Cobalt2XG308UTiSiXG296X1 3.8148e-21
C_0_275 BL:n2d iQ1:SDexcludeXG264UTiSiXG296X1 4.8858e-20
C_0_276 BL:n2d iQ1:SDexcludeXG271UTiSiXG295X1 1.0571e-19
C_0_277 BL:n2d iQ1:SDexcludeXG272UTiSiXG295X1 9.8035e-20
C_0_278 BL:n2d iQ1:SiGeBXG285UTiSiXG296X1 1.8983e-21
C_0_279 BL:n2d iQ1:SiGeBXG286UTiSiXG296X1 1.5338e-24
C_0_280 BL:n2d iQ1:SiGeBXG323UTiSiXG296X1 1.5565e-24
C_0_281 BL:n2d iQ1:SiGeBXG327UTiSiXG296X1 1.5086e-24
C_0_282 BL:n2d iQ1:SiliconNXG302UTiSiXG295X1 3.7047e-21
C_0_283 BL:n2d iQ1:n1d 2.0741e-19
C_0_284 BL:n2d iQ1:n2s 2.0741e-19
C_0_285 BL:n2d iQ1:p1d 5.0753e-20
C_0_286 BL:n2d iQ2:LM00Cobalt2XG153ULM10Tungsten1XG151X1 1.9546e-19
C_0_287 BL:n2d iQ2:LM00Cobalt2XG153USiGeBXG288X1 6.9423e-22
C_0_288 BL:n2d iQ2:LM00Cobalt2XG153UTiSiXG299X1 7.9857e-23
C_0_289 BL:n2d iQ2:LM00Cobalt2XG153UTiSiXG300X1 8.0578e-23
C_0_290 BL:n2d iQ2:SDexcludeXG265UTiSiXG299X1 2.6154e-20
C_0_291 BL:n2d iQ2:SDexcludeXG273UTiSiXG300X1 1.1937e-20
C_0_292 BL:n2d iQ2:SDexcludeXG274UTiSiXG300X1 1.1090e-20
C_0_293 BL:n2d iQ2:SiGeBXG288UTiSiXG299X1 6.1444e-22
C_0_294 BL:n2d iQ2:SiGeBXG290UTiSiXG299X1 7.4926e-26
C_0_295 BL:n2d iQ2:SiGeBXG328UTiSiXG299X1 3.3977e-26
C_0_296 BL:n2d iQ2:SiliconNXG305UTiSiXG300X1 5.9599e-22
C_0_297 BL:n2d iQ2:n3d 2.3620e-20
C_0_298 BL:n2d iQ2:n4s 2.3620e-20
C_0_299 BL:n2d iQ2:p2s 2.6768e-20
R_0_0 BLD BLU 1.1572e+01
R_0_1 BLD BL:LM00Cobalt2XG535ULM40Cobalt5XG46X1 3.4048e+01
R_0_2 BLU BL:LM00Cobalt2XG535ULM40Cobalt5XG46X1 1.0482e+03
R_0_3 BL:LM00Cobalt2XG535ULM40Cobalt5XG46X1 BL:LM00Cobalt2XG535UTiSiXG524X1 5.8596e+01
R_0_4 BL:LM00Cobalt2XG535UTiSiXG524X1 BL:SiliconNXG516UTiSiXG524X1 1.8658e+02
R_0_5 BL:SiliconNXG516UTiSiXG524X1 BL:n2d 2.1209e+01

*|NET BLB 4.8687e-05PF
C_1_0 BLBD WLL 3.6209e-19
C_1_1 BLBD WLR 3.6209e-19
C_1_2 BLBD WL:LM00Cobalt2XG101ULM10Tungsten1XG167X1 1.4916e-19
C_1_3 BLBD WL:LM00Cobalt2XG101ULM40Cobalt5XG89X1 8.2754e-19
C_1_4 BLBD WL:LM00Cobalt2XG350ULM10Tungsten1XG367X1 1.5007e-22
C_1_5 BLBD WL:LM00Cobalt2XG350ULM40Cobalt5XG279X1 1.0911e-23
C_1_6 BLBD WL:LM20Cobalt3XG320ULM30Cobalt4XG123X1 3.6210e-19
C_1_7 BLBD WL:LM20Cobalt3XG320ULM40Cobalt5XG279X1 1.2296e-23
C_1_8 BLBD WL:LM20Cobalt3XG97ULM30Cobalt4XG123X1 4.7435e-19
C_1_9 BLBD WL:LM20Cobalt3XG97ULM40Cobalt5XG89X1 8.9524e-19
C_1_10 BLBD WL:n2g 3.8868e-23
C_1_11 BLBD WL:n3g 7.0100e-22
C_1_12 BLBD iQ1:LM00Cobalt2XG308ULM10Tungsten1XG368X1 1.5708e-19
C_1_13 BLBD iQ1:LM00Cobalt2XG308USiGeBXG285X1 3.0446e-22
C_1_14 BLBD iQ1:LM00Cobalt2XG308UTiSiXG295X1 3.0130e-22
C_1_15 BLBD iQ1:LM00Cobalt2XG308UTiSiXG296X1 3.0133e-22
C_1_16 BLBD iQ1:SDexcludeXG264UTiSiXG296X1 3.5259e-23
C_1_17 BLBD iQ1:SDexcludeXG271UTiSiXG295X1 1.2746e-23
C_1_18 BLBD iQ1:SDexcludeXG272UTiSiXG295X1 1.4571e-23
C_1_19 BLBD iQ1:SiGeBXG285UTiSiXG296X1 3.2053e-24
C_1_20 BLBD iQ1:SiGeBXG286UTiSiXG296X1 3.8025e-26
C_1_21 BLBD iQ1:SiGeBXG323UTiSiXG296X1 3.7840e-26
C_1_22 BLBD iQ1:SiGeBXG327UTiSiXG296X1 3.7795e-26
C_1_23 BLBD iQ1:SiliconNXG302UTiSiXG295X1 8.0655e-25
C_1_24 BLBD iQ1:n1d 2.8110e-23
C_1_25 BLBD iQ1:n2s 2.8110e-23
C_1_26 BLBD iQ1:n4g 5.7685e-22
C_1_27 BLBD iQ1:p1d 3.8389e-23
C_1_28 BLBD iQ1:p2g 1.2567e-22
C_1_29 BLBD iQ2:LM00Cobalt2XG153ULM10Tungsten1XG151X1 2.3741e-19
C_1_30 BLBD iQ2:LM00Cobalt2XG153USiGeBXG288X1 2.1600e-19
C_1_31 BLBD iQ2:LM00Cobalt2XG153UTiSiXG299X1 2.1599e-19
C_1_32 BLBD iQ2:LM00Cobalt2XG153UTiSiXG300X1 2.1601e-19
C_1_33 BLBD iQ2:SDexcludeXG265UTiSiXG299X1 5.5971e-23
C_1_34 BLBD iQ2:SDexcludeXG273UTiSiXG300X1 6.1101e-23
C_1_35 BLBD iQ2:SDexcludeXG274UTiSiXG300X1 6.0039e-23
C_1_36 BLBD iQ2:SiGeBXG288UTiSiXG299X1 1.2327e-23
C_1_37 BLBD iQ2:SiGeBXG290UTiSiXG299X1 4.6667e-25
C_1_38 BLBD iQ2:SiGeBXG328UTiSiXG299X1 4.7073e-25
C_1_39 BLBD iQ2:SiliconNXG305UTiSiXG300X1 4.6686e-23
C_1_40 BLBD iQ2:n1g 3.6323e-23
C_1_41 BLBD iQ2:n3d 1.1193e-22
C_1_42 BLBD iQ2:n4s 1.1193e-22
C_1_43 BLBD iQ2:p1g 6.7180e-23
C_1_44 BLBD iQ2:p2s 6.7366e-23
C_1_45 BLBU WLL 3.6209e-19
C_1_46 BLBU WLR 3.6209e-19
C_1_47 BLBU WL:LM00Cobalt2XG101ULM10Tungsten1XG167X1 1.4916e-19
C_1_48 BLBU WL:LM00Cobalt2XG101ULM40Cobalt5XG89X1 8.2754e-19
C_1_49 BLBU WL:LM00Cobalt2XG350ULM10Tungsten1XG367X1 1.5007e-22
C_1_50 BLBU WL:LM00Cobalt2XG350ULM40Cobalt5XG279X1 1.0911e-23
C_1_51 BLBU WL:LM20Cobalt3XG320ULM30Cobalt4XG123X1 3.6210e-19
C_1_52 BLBU WL:LM20Cobalt3XG320ULM40Cobalt5XG279X1 1.2296e-23
C_1_53 BLBU WL:LM20Cobalt3XG97ULM30Cobalt4XG123X1 4.7435e-19
C_1_54 BLBU WL:LM20Cobalt3XG97ULM40Cobalt5XG89X1 8.9524e-19
C_1_55 BLBU WL:n2g 3.8868e-23
C_1_56 BLBU WL:n3g 7.0100e-22
C_1_57 BLBU iQ1:LM00Cobalt2XG308ULM10Tungsten1XG368X1 1.5708e-19
C_1_58 BLBU iQ1:LM00Cobalt2XG308USiGeBXG285X1 3.0446e-22
C_1_59 BLBU iQ1:LM00Cobalt2XG308UTiSiXG295X1 3.0130e-22
C_1_60 BLBU iQ1:LM00Cobalt2XG308UTiSiXG296X1 3.0133e-22
C_1_61 BLBU iQ1:SDexcludeXG264UTiSiXG296X1 3.5259e-23
C_1_62 BLBU iQ1:SDexcludeXG271UTiSiXG295X1 1.2746e-23
C_1_63 BLBU iQ1:SDexcludeXG272UTiSiXG295X1 1.4571e-23
C_1_64 BLBU iQ1:SiGeBXG285UTiSiXG296X1 3.2053e-24
C_1_65 BLBU iQ1:SiGeBXG286UTiSiXG296X1 3.8025e-26
C_1_66 BLBU iQ1:SiGeBXG323UTiSiXG296X1 3.7840e-26
C_1_67 BLBU iQ1:SiGeBXG327UTiSiXG296X1 3.7795e-26
C_1_68 BLBU iQ1:SiliconNXG302UTiSiXG295X1 8.0655e-25
C_1_69 BLBU iQ1:n1d 2.8110e-23
C_1_70 BLBU iQ1:n2s 2.8110e-23
C_1_71 BLBU iQ1:n4g 5.7685e-22
C_1_72 BLBU iQ1:p1d 3.8389e-23
C_1_73 BLBU iQ1:p2g 1.2567e-22
C_1_74 BLBU iQ2:LM00Cobalt2XG153ULM10Tungsten1XG151X1 2.3741e-19
C_1_75 BLBU iQ2:LM00Cobalt2XG153USiGeBXG288X1 2.1600e-19
C_1_76 BLBU iQ2:LM00Cobalt2XG153UTiSiXG299X1 2.1599e-19
C_1_77 BLBU iQ2:LM00Cobalt2XG153UTiSiXG300X1 2.1601e-19
C_1_78 BLBU iQ2:SDexcludeXG265UTiSiXG299X1 5.5971e-23
C_1_79 BLBU iQ2:SDexcludeXG273UTiSiXG300X1 6.1101e-23
C_1_80 BLBU iQ2:SDexcludeXG274UTiSiXG300X1 6.0039e-23
C_1_81 BLBU iQ2:SiGeBXG288UTiSiXG299X1 1.2327e-23
C_1_82 BLBU iQ2:SiGeBXG290UTiSiXG299X1 4.6667e-25
C_1_83 BLBU iQ2:SiGeBXG328UTiSiXG299X1 4.7073e-25
C_1_84 BLBU iQ2:SiliconNXG305UTiSiXG300X1 4.6686e-23
C_1_85 BLBU iQ2:n1g 3.6323e-23
C_1_86 BLBU iQ2:n3d 1.1193e-22
C_1_87 BLBU iQ2:n4s 1.1193e-22
C_1_88 BLBU iQ2:p1g 6.7180e-23
C_1_89 BLBU iQ2:p2s 6.7366e-23
C_1_90 WLL BLB:LM00Cobalt2XG71ULM40Cobalt5XG77X1 3.6328e-19
C_1_91 WLL BLB:LM00Cobalt2XG71UTiSiXG73X1 1.1977e-21
C_1_92 WLL BLB:SiliconNXG72UTiSiXG73X1 1.2251e-22
C_1_93 WLL BLB:n3s 1.3194e-22
C_1_94 WLR BLB:LM00Cobalt2XG71ULM40Cobalt5XG77X1 3.6328e-19
C_1_95 WLR BLB:LM00Cobalt2XG71UTiSiXG73X1 1.1977e-21
C_1_96 WLR BLB:SiliconNXG72UTiSiXG73X1 1.2251e-22
C_1_97 WLR BLB:n3s 1.3194e-22
C_1_98 BLB:LM00Cobalt2XG71ULM40Cobalt5XG77X1 WL:LM00Cobalt2XG101ULM10Tungsten1XG167X1 2.2536e-18
C_1_99 BLB:LM00Cobalt2XG71ULM40Cobalt5XG77X1 WL:LM00Cobalt2XG101ULM40Cobalt5XG89X1 1.1561e-18
C_1_100 BLB:LM00Cobalt2XG71ULM40Cobalt5XG77X1 WL:LM00Cobalt2XG350ULM10Tungsten1XG367X1 7.8713e-22
C_1_101 BLB:LM00Cobalt2XG71ULM40Cobalt5XG77X1 WL:LM00Cobalt2XG350ULM40Cobalt5XG279X1 1.2072e-23
C_1_102 BLB:LM00Cobalt2XG71ULM40Cobalt5XG77X1 WL:LM20Cobalt3XG320ULM30Cobalt4XG123X1 3.6329e-19
C_1_103 BLB:LM00Cobalt2XG71ULM40Cobalt5XG77X1 WL:LM20Cobalt3XG320ULM40Cobalt5XG279X1 1.2751e-23
C_1_104 BLB:LM00Cobalt2XG71ULM40Cobalt5XG77X1 WL:LM20Cobalt3XG97ULM30Cobalt4XG123X1 4.7785e-19
C_1_105 BLB:LM00Cobalt2XG71ULM40Cobalt5XG77X1 WL:LM20Cobalt3XG97ULM40Cobalt5XG89X1 1.0140e-18
C_1_106 BLB:LM00Cobalt2XG71ULM40Cobalt5XG77X1 WL:n2g 4.4347e-22
C_1_107 BLB:LM00Cobalt2XG71ULM40Cobalt5XG77X1 WL:n3g 1.8212e-19
C_1_108 BLB:LM00Cobalt2XG71ULM40Cobalt5XG77X1 iQ1:LM00Cobalt2XG308ULM10Tungsten1XG368X1 1.6036e-19
C_1_109 BLB:LM00Cobalt2XG71ULM40Cobalt5XG77X1 iQ1:LM00Cobalt2XG308USiGeBXG285X1 4.5469e-22
C_1_110 BLB:LM00Cobalt2XG71ULM40Cobalt5XG77X1 iQ1:LM00Cobalt2XG308UTiSiXG295X1 4.3839e-22
C_1_111 BLB:LM00Cobalt2XG71ULM40Cobalt5XG77X1 iQ1:LM00Cobalt2XG308UTiSiXG296X1 4.3847e-22
C_1_112 BLB:LM00Cobalt2XG71ULM40Cobalt5XG77X1 iQ1:SDexcludeXG264UTiSiXG296X1 5.3626e-22
C_1_113 BLB:LM00Cobalt2XG71ULM40Cobalt5XG77X1 iQ1:SDexcludeXG271UTiSiXG295X1 1.9145e-22
C_1_114 BLB:LM00Cobalt2XG71ULM40Cobalt5XG77X1 iQ1:SDexcludeXG272UTiSiXG295X1 2.1639e-22
C_1_115 BLB:LM00Cobalt2XG71ULM40Cobalt5XG77X1 iQ1:SiGeBXG285UTiSiXG296X1 1.6389e-23
C_1_116 BLB:LM00Cobalt2XG71ULM40Cobalt5XG77X1 iQ1:SiGeBXG286UTiSiXG296X1 8.9845e-26
C_1_117 BLB:LM00Cobalt2XG71ULM40Cobalt5XG77X1 iQ1:SiGeBXG323UTiSiXG296X1 8.9231e-26
C_1_118 BLB:LM00Cobalt2XG71ULM40Cobalt5XG77X1 iQ1:SiGeBXG327UTiSiXG296X1 8.8435e-26
C_1_119 BLB:LM00Cobalt2XG71ULM40Cobalt5XG77X1 iQ1:SiliconNXG302UTiSiXG295X1 1.0724e-23
C_1_120 BLB:LM00Cobalt2XG71ULM40Cobalt5XG77X1 iQ1:n1d 4.1854e-22
C_1_121 BLB:LM00Cobalt2XG71ULM40Cobalt5XG77X1 iQ1:n2s 4.1854e-22
C_1_122 BLB:LM00Cobalt2XG71ULM40Cobalt5XG77X1 iQ1:n4g 1.3106e-21
C_1_123 BLB:LM00Cobalt2XG71ULM40Cobalt5XG77X1 iQ1:p1d 5.5247e-22
C_1_124 BLB:LM00Cobalt2XG71ULM40Cobalt5XG77X1 iQ1:p2g 4.5721e-22
C_1_125 BLB:LM00Cobalt2XG71ULM40Cobalt5XG77X1 iQ2:LM00Cobalt2XG153ULM10Tungsten1XG151X1 7.3116e-19
C_1_126 BLB:LM00Cobalt2XG71ULM40Cobalt5XG77X1 iQ2:LM00Cobalt2XG153USiGeBXG288X1 3.0409e-19
C_1_127 BLB:LM00Cobalt2XG71ULM40Cobalt5XG77X1 iQ2:LM00Cobalt2XG153UTiSiXG299X1 3.0380e-19
C_1_128 BLB:LM00Cobalt2XG71ULM40Cobalt5XG77X1 iQ2:LM00Cobalt2XG153UTiSiXG300X1 3.0384e-19
C_1_129 BLB:LM00Cobalt2XG71ULM40Cobalt5XG77X1 iQ2:SDexcludeXG265UTiSiXG299X1 9.3301e-22
C_1_130 BLB:LM00Cobalt2XG71ULM40Cobalt5XG77X1 iQ2:SDexcludeXG273UTiSiXG300X1 6.1626e-22
C_1_131 BLB:LM00Cobalt2XG71ULM40Cobalt5XG77X1 iQ2:SDexcludeXG274UTiSiXG300X1 5.7145e-22
C_1_132 BLB:LM00Cobalt2XG71ULM40Cobalt5XG77X1 iQ2:SiGeBXG288UTiSiXG299X1 2.9541e-22
C_1_133 BLB:LM00Cobalt2XG71ULM40Cobalt5XG77X1 iQ2:SiGeBXG290UTiSiXG299X1 3.3053e-24
C_1_134 BLB:LM00Cobalt2XG71ULM40Cobalt5XG77X1 iQ2:SiGeBXG328UTiSiXG299X1 3.3076e-24
C_1_135 BLB:LM00Cobalt2XG71ULM40Cobalt5XG77X1 iQ2:SiliconNXG305UTiSiXG300X1 2.4723e-22
C_1_136 BLB:LM00Cobalt2XG71ULM40Cobalt5XG77X1 iQ2:n1g 5.8223e-22
C_1_137 BLB:LM00Cobalt2XG71ULM40Cobalt5XG77X1 iQ2:n3d 1.3080e-21
C_1_138 BLB:LM00Cobalt2XG71ULM40Cobalt5XG77X1 iQ2:n4s 1.3080e-21
C_1_139 BLB:LM00Cobalt2XG71ULM40Cobalt5XG77X1 iQ2:p1g 1.2489e-21
C_1_140 BLB:LM00Cobalt2XG71ULM40Cobalt5XG77X1 iQ2:p2s 1.2218e-21
C_1_141 BLB:LM00Cobalt2XG71UTiSiXG73X1 WL:LM00Cobalt2XG101ULM10Tungsten1XG167X1 2.1220e-18
C_1_142 BLB:LM00Cobalt2XG71UTiSiXG73X1 WL:LM00Cobalt2XG101ULM40Cobalt5XG89X1 3.3003e-19
C_1_143 BLB:LM00Cobalt2XG71UTiSiXG73X1 WL:LM00Cobalt2XG350ULM10Tungsten1XG367X1 6.7635e-22
C_1_144 BLB:LM00Cobalt2XG71UTiSiXG73X1 WL:LM00Cobalt2XG350ULM40Cobalt5XG279X1 1.2259e-24
C_1_145 BLB:LM00Cobalt2XG71UTiSiXG73X1 WL:LM20Cobalt3XG320ULM30Cobalt4XG123X1 1.1978e-21
C_1_146 BLB:LM00Cobalt2XG71UTiSiXG73X1 WL:LM20Cobalt3XG320ULM40Cobalt5XG279X1 4.7570e-25
C_1_147 BLB:LM00Cobalt2XG71UTiSiXG73X1 WL:LM20Cobalt3XG97ULM30Cobalt4XG123X1 3.5155e-21
C_1_148 BLB:LM00Cobalt2XG71UTiSiXG73X1 WL:LM20Cobalt3XG97ULM40Cobalt5XG89X1 1.1928e-19
C_1_149 BLB:LM00Cobalt2XG71UTiSiXG73X1 WL:n2g 4.2959e-22
C_1_150 BLB:LM00Cobalt2XG71UTiSiXG73X1 WL:n3g 1.8881e-19
C_1_151 BLB:LM00Cobalt2XG71UTiSiXG73X1 iQ1:LM00Cobalt2XG308ULM10Tungsten1XG368X1 3.4591e-21
C_1_152 BLB:LM00Cobalt2XG71UTiSiXG73X1 iQ1:LM00Cobalt2XG308USiGeBXG285X1 1.5224e-22
C_1_153 BLB:LM00Cobalt2XG71UTiSiXG73X1 iQ1:LM00Cobalt2XG308UTiSiXG295X1 1.3842e-22
C_1_154 BLB:LM00Cobalt2XG71UTiSiXG73X1 iQ1:LM00Cobalt2XG308UTiSiXG296X1 1.3847e-22
C_1_155 BLB:LM00Cobalt2XG71UTiSiXG73X1 iQ1:SDexcludeXG264UTiSiXG296X1 5.3034e-22
C_1_156 BLB:LM00Cobalt2XG71UTiSiXG73X1 iQ1:SDexcludeXG271UTiSiXG295X1 1.8960e-22