*|TITLE Netlist generated by Raphael FX rcnetmerge
*|TITLE 1.1
*|TITLE Date Fri Apr 23 16:08:37 PDT 2021
*|PARAM cellnamefrom= raphaelfx
*|PARAM include= {}
*|PARAM instancefrom= raphaelnet
*|PARAM outputnet= n954_rph.spf
*|PARAM pingroup=  WL {WLL WLR} BL {BLU BLD} BLB {BLBU BLBD} 
*|PARAM pinsfrom= raphaelfx
*|PARAM raphaelnet= n954_rph.spi
*|PARAM referencenet= /nfs/pdx/disks/icf_sandp_gwa001/changyok/swb/SNPS_DTCO/TRD2/20201220/BIC2022_update20210412/2-RC_Extraction/2.01-BIC2022_FinFET_PEX_Nominal/sram_hc_wide.lvs

.SUBCKT array BLBD BLBU BLD BLU VDD VSS WLL WLR VBP VBN

*|NETS BL BLB VDD VSS WL iQ1 iQ2

*|CAPACITANCE GRAND SUM 2.9146e-04PF
*|BLB WL 2.3629e-05PF
*|BLB iQ1 9.3558e-07PF
*|BLB iQ2 5.7236e-06PF
*|BL BLB 1.2792e-07PF
*|BL WL 2.3698e-05PF
*|BL iQ1 5.7896e-06PF
*|BL iQ2 9.3632e-07PF
*|VDD BL 8.7059e-06PF
*|VDD BLB 8.6753e-06PF
*|VDD VSS 1.1207e-05PF
*|VDD WL 8.2452e-06PF
*|VDD iQ1 1.4419e-05PF
*|VDD iQ2 1.4428e-05PF
*|VSS BL 8.7476e-06PF
*|VSS BLB 9.0658e-06PF
*|VSS WL 2.6160e-05PF
*|VSS iQ1 1.5215e-05PF
*|VSS iQ2 1.5228e-05PF
*|WL iQ1 2.0791e-05PF
*|WL iQ2 2.0466e-05PF
*|iQ1 iQ2 4.9270e-05PF

*|NET BL 4.8005e-05PF
C_0_0 BLBD BLD 7.6846e-22
C_0_1 BLBD BLU 7.6846e-22
C_0_2 BLBD BL:LM00Cobalt2XG546ULM40Cobalt5XG45X1 1.3805e-21
C_0_3 BLBD BL:LM00Cobalt2XG546UTiSiXG535X1 6.2067e-22
C_0_4 BLBD BL:SiliconNXG527UTiSiXG535X1 1.5906e-22
C_0_5 BLBD BL:n2d 2.9114e-22
C_0_6 BLBU BLD 7.6846e-22
C_0_7 BLBU BLU 7.6846e-22
C_0_8 BLBU BL:LM00Cobalt2XG546ULM40Cobalt5XG45X1 1.3805e-21
C_0_9 BLBU BL:LM00Cobalt2XG546UTiSiXG535X1 6.2067e-22
C_0_10 BLBU BL:SiliconNXG527UTiSiXG535X1 1.5906e-22
C_0_11 BLBU BL:n2d 2.9114e-22
C_0_12 BLD WLL 3.6205e-19
C_0_13 BLD WLR 3.6205e-19
C_0_14 BLD BLB:LM00Cobalt2XG70ULM40Cobalt5XG76X1 1.3573e-21
C_0_15 BLD BLB:LM00Cobalt2XG70UTiSiXG71X1 5.9802e-22
C_0_16 BLD BLB:SiliconNXG72UTiSiXG71X1 1.6539e-22
C_0_17 BLD BLB:n3s 2.9828e-22
C_0_18 BLD WL:LM00Cobalt2XG102ULM10Tungsten1XG167X1 1.6175e-22
C_0_19 BLD WL:LM00Cobalt2XG102ULM40Cobalt5XG90X1 1.5875e-23
C_0_20 BLD WL:LM00Cobalt2XG357ULM10Tungsten1XG375X1 1.7331e-19
C_0_21 BLD WL:LM00Cobalt2XG357ULM40Cobalt5XG285X1 8.1947e-19
C_0_22 BLD WL:LM20Cobalt3XG327ULM30Cobalt4XG122X1 5.0442e-19
C_0_23 BLD WL:LM20Cobalt3XG327ULM40Cobalt5XG285X1 9.1400e-19
C_0_24 BLD WL:LM20Cobalt3XG98ULM30Cobalt4XG122X1 3.6205e-19
C_0_25 BLD WL:LM20Cobalt3XG98ULM40Cobalt5XG90X1 1.6039e-23
C_0_26 BLD WL:n2g 8.6560e-22
C_0_27 BLD WL:n3g 4.6245e-23
C_0_28 BLD iQ1:LM00Cobalt2XG314ULM10Tungsten1XG376X1 2.3172e-19
C_0_29 BLD iQ1:LM00Cobalt2XG314USiGeBXG291X1 2.0969e-19
C_0_30 BLD iQ1:LM00Cobalt2XG314UTiSiXG301X1 2.0969e-19
C_0_31 BLD iQ1:LM00Cobalt2XG314UTiSiXG302X1 2.0967e-19
C_0_32 BLD iQ1:SDexcludeXG271UTiSiXG302X1 6.6502e-23
C_0_33 BLD iQ1:SDexcludeXG277UTiSiXG301X1 6.9461e-23
C_0_34 BLD iQ1:SDexcludeXG278UTiSiXG301X1 7.1355e-23
C_0_35 BLD iQ1:SiGeBXG291UTiSiXG302X1 1.7643e-23
C_0_36 BLD iQ1:SiGeBXG292UTiSiXG302X1 5.8650e-25
C_0_37 BLD iQ1:SiGeBXG331UTiSiXG302X1 5.8343e-25
C_0_38 BLD iQ1:SiGeBXG335UTiSiXG302X1 5.8341e-25
C_0_39 BLD iQ1:SiliconNXG308UTiSiXG301X1 4.6399e-23
C_0_40 BLD iQ1:n1d 1.2292e-22
C_0_41 BLD iQ1:n2s 1.2292e-22
C_0_42 BLD iQ1:n4g 4.1190e-23
C_0_43 BLD iQ1:p1d 8.2978e-23
C_0_44 BLD iQ1:p2g 7.2377e-23
C_0_45 BLD iQ2:LM00Cobalt2XG151ULM10Tungsten1XG149X1 1.8572e-19
C_0_46 BLD iQ2:LM00Cobalt2XG151USiGeBXG294X1 2.6519e-22
C_0_47 BLD iQ2:LM00Cobalt2XG151UTiSiXG305X1 2.6178e-22
C_0_48 BLD iQ2:LM00Cobalt2XG151UTiSiXG306X1 2.6173e-22
C_0_49 BLD iQ2:SDexcludeXG272UTiSiXG305X1 3.9561e-23
C_0_50 BLD iQ2:SDexcludeXG279UTiSiXG306X1 1.6382e-23
C_0_51 BLD iQ2:SDexcludeXG280UTiSiXG306X1 1.4300e-23
C_0_52 BLD iQ2:SiGeBXG294UTiSiXG305X1 3.5450e-24
C_0_53 BLD iQ2:SiGeBXG296UTiSiXG305X1 6.5797e-26
C_0_54 BLD iQ2:SiGeBXG336UTiSiXG305X1 6.2780e-26
C_0_55 BLD iQ2:SiliconNXG311UTiSiXG306X1 1.0328e-24
C_0_56 BLD iQ2:n1g 6.8306e-22
C_0_57 BLD iQ2:n3d 3.1672e-23
C_0_58 BLD iQ2:n4s 3.1672e-23
C_0_59 BLD iQ2:p1g 1.3906e-22
C_0_60 BLD iQ2:p2s 4.2981e-23
C_0_61 BLU WLL 3.6205e-19
C_0_62 BLU WLR 3.6205e-19
C_0_63 BLU BLB:LM00Cobalt2XG70ULM40Cobalt5XG76X1 1.3573e-21
C_0_64 BLU BLB:LM00Cobalt2XG70UTiSiXG71X1 5.9802e-22
C_0_65 BLU BLB:SiliconNXG72UTiSiXG71X1 1.6539e-22
C_0_66 BLU BLB:n3s 2.9828e-22
C_0_67 BLU WL:LM00Cobalt2XG102ULM10Tungsten1XG167X1 1.6175e-22
C_0_68 BLU WL:LM00Cobalt2XG102ULM40Cobalt5XG90X1 1.5875e-23
C_0_69 BLU WL:LM00Cobalt2XG357ULM10Tungsten1XG375X1 1.7331e-19
C_0_70 BLU WL:LM00Cobalt2XG357ULM40Cobalt5XG285X1 8.1947e-19
C_0_71 BLU WL:LM20Cobalt3XG327ULM30Cobalt4XG122X1 5.0442e-19
C_0_72 BLU WL:LM20Cobalt3XG327ULM40Cobalt5XG285X1 9.1400e-19
C_0_73 BLU WL:LM20Cobalt3XG98ULM30Cobalt4XG122X1 3.6205e-19
C_0_74 BLU WL:LM20Cobalt3XG98ULM40Cobalt5XG90X1 1.6039e-23
C_0_75 BLU WL:n2g 8.6560e-22
C_0_76 BLU WL:n3g 4.6245e-23
C_0_77 BLU iQ1:LM00Cobalt2XG314ULM10Tungsten1XG376X1 2.3172e-19
C_0_78 BLU iQ1:LM00Cobalt2XG314USiGeBXG291X1 2.0969e-19
C_0_79 BLU iQ1:LM00Cobalt2XG314UTiSiXG301X1 2.0969e-19
C_0_80 BLU iQ1:LM00Cobalt2XG314UTiSiXG302X1 2.0967e-19
C_0_81 BLU iQ1:SDexcludeXG271UTiSiXG302X1 6.6502e-23
C_0_82 BLU iQ1:SDexcludeXG277UTiSiXG301X1 6.9461e-23
C_0_83 BLU iQ1:SDexcludeXG278UTiSiXG301X1 7.1355e-23
C_0_84 BLU iQ1:SiGeBXG291UTiSiXG302X1 1.7643e-23
C_0_85 BLU iQ1:SiGeBXG292UTiSiXG302X1 5.8650e-25
C_0_86 BLU iQ1:SiGeBXG331UTiSiXG302X1 5.8343e-25
C_0_87 BLU iQ1:SiGeBXG335UTiSiXG302X1 5.8341e-25
C_0_88 BLU iQ1:SiliconNXG308UTiSiXG301X1 4.6399e-23
C_0_89 BLU iQ1:n1d 1.2292e-22
C_0_90 BLU iQ1:n2s 1.2292e-22
C_0_91 BLU iQ1:n4g 4.1190e-23
C_0_92 BLU iQ1:p1d 8.2978e-23
C_0_93 BLU iQ1:p2g 7.2377e-23
C_0_94 BLU iQ2:LM00Cobalt2XG151ULM10Tungsten1XG149X1 1.8572e-19
C_0_95 BLU iQ2:LM00Cobalt2XG151USiGeBXG294X1 2.6519e-22
C_0_96 BLU iQ2:LM00Cobalt2XG151UTiSiXG305X1 2.6178e-22
C_0_97 BLU iQ2:LM00Cobalt2XG151UTiSiXG306X1 2.6173e-22
C_0_98 BLU iQ2:SDexcludeXG272UTiSiXG305X1 3.9561e-23
C_0_99 BLU iQ2:SDexcludeXG279UTiSiXG306X1 1.6382e-23
C_0_100 BLU iQ2:SDexcludeXG280UTiSiXG306X1 1.4300e-23
C_0_101 BLU iQ2:SiGeBXG294UTiSiXG305X1 3.5450e-24
C_0_102 BLU iQ2:SiGeBXG296UTiSiXG305X1 6.5797e-26
C_0_103 BLU iQ2:SiGeBXG336UTiSiXG305X1 6.2780e-26
C_0_104 BLU iQ2:SiliconNXG311UTiSiXG306X1 1.0328e-24
C_0_105 BLU iQ2:n1g 6.8306e-22
C_0_106 BLU iQ2:n3d 3.1672e-23
C_0_107 BLU iQ2:n4s 3.1672e-23
C_0_108 BLU iQ2:p1g 1.3906e-22
C_0_109 BLU iQ2:p2s 4.2981e-23
C_0_110 WLL BL:LM00Cobalt2XG546ULM40Cobalt5XG45X1 3.6335e-19
C_0_111 WLL BL:LM00Cobalt2XG546UTiSiXG535X1 1.3063e-21
C_0_112 WLL BL:SiliconNXG527UTiSiXG535X1 1.5029e-22
C_0_113 WLL BL:n2d 1.6168e-22
C_0_114 WLR BL:LM00Cobalt2XG546ULM40Cobalt5XG45X1 3.6335e-19
C_0_115 WLR BL:LM00Cobalt2XG546UTiSiXG535X1 1.3063e-21
C_0_116 WLR BL:SiliconNXG527UTiSiXG535X1 1.5029e-22
C_0_117 WLR BL:n2d 1.6168e-22
C_0_118 BL:LM00Cobalt2XG546ULM40Cobalt5XG45X1 BLB:LM00Cobalt2XG70ULM40Cobalt5XG76X1 1.9902e-21
C_0_119 BL:LM00Cobalt2XG546ULM40Cobalt5XG45X1 BLB:LM00Cobalt2XG70UTiSiXG71X1 6.2021e-22
C_0_120 BL:LM00Cobalt2XG546ULM40Cobalt5XG45X1 BLB:SiliconNXG72UTiSiXG71X1 3.4923e-22
C_0_121 BL:LM00Cobalt2XG546ULM40Cobalt5XG45X1 BLB:n3s 1.6537e-21
C_0_122 BL:LM00Cobalt2XG546ULM40Cobalt5XG45X1 WL:LM00Cobalt2XG102ULM10Tungsten1XG167X1 8.5414e-22
C_0_123 BL:LM00Cobalt2XG546ULM40Cobalt5XG45X1 WL:LM00Cobalt2XG102ULM40Cobalt5XG90X1 1.7319e-23
C_0_124 BL:LM00Cobalt2XG546ULM40Cobalt5XG45X1 WL:LM00Cobalt2XG357ULM10Tungsten1XG375X1 2.2355e-18
C_0_125 BL:LM00Cobalt2XG546ULM40Cobalt5XG45X1 WL:LM00Cobalt2XG357ULM40Cobalt5XG285X1 1.1053e-18
C_0_126 BL:LM00Cobalt2XG546ULM40Cobalt5XG45X1 WL:LM20Cobalt3XG327ULM30Cobalt4XG122X1 5.1257e-19
C_0_127 BL:LM00Cobalt2XG546ULM40Cobalt5XG45X1 WL:LM20Cobalt3XG327ULM40Cobalt5XG285X1 1.0052e-18
C_0_128 BL:LM00Cobalt2XG546ULM40Cobalt5XG45X1 WL:LM20Cobalt3XG98ULM30Cobalt4XG122X1 3.6335e-19
C_0_129 BL:LM00Cobalt2XG546ULM40Cobalt5XG45X1 WL:LM20Cobalt3XG98ULM40Cobalt5XG90X1 1.6619e-23
C_0_130 BL:LM00Cobalt2XG546ULM40Cobalt5XG45X1 WL:n2g 1.8393e-19
C_0_131 BL:LM00Cobalt2XG546ULM40Cobalt5XG45X1 WL:n3g 5.1450e-22
C_0_132 BL:LM00Cobalt2XG546ULM40Cobalt5XG45X1 iQ1:LM00Cobalt2XG314ULM10Tungsten1XG376X1 7.4432e-19
C_0_133 BL:LM00Cobalt2XG546ULM40Cobalt5XG45X1 iQ1:LM00Cobalt2XG314USiGeBXG291X1 2.8871e-19
C_0_134 BL:LM00Cobalt2XG546ULM40Cobalt5XG45X1 iQ1:LM00Cobalt2XG314UTiSiXG301X1 2.8829e-19
C_0_135 BL:LM00Cobalt2XG546ULM40Cobalt5XG45X1 iQ1:LM00Cobalt2XG314UTiSiXG302X1 2.8822e-19
C_0_136 BL:LM00Cobalt2XG546ULM40Cobalt5XG45X1 iQ1:SDexcludeXG271UTiSiXG302X1 1.1689e-21
C_0_137 BL:LM00Cobalt2XG546ULM40Cobalt5XG45X1 iQ1:SDexcludeXG277UTiSiXG301X1 6.4681e-22
C_0_138 BL:LM00Cobalt2XG546ULM40Cobalt5XG45X1 iQ1:SDexcludeXG278UTiSiXG301X1 7.3757e-22
C_0_139 BL:LM00Cobalt2XG546ULM40Cobalt5XG45X1 iQ1:SiGeBXG291UTiSiXG302X1 4.9796e-22
C_0_140 BL:LM00Cobalt2XG546ULM40Cobalt5XG45X1 iQ1:SiGeBXG292UTiSiXG302X1 5.7672e-24
C_0_141 BL:LM00Cobalt2XG546ULM40Cobalt5XG45X1 iQ1:SiGeBXG331UTiSiXG302X1 5.7644e-24
C_0_142 BL:LM00Cobalt2XG546ULM40Cobalt5XG45X1 iQ1:SiGeBXG335UTiSiXG302X1 5.7641e-24
C_0_143 BL:LM00Cobalt2XG546ULM40Cobalt5XG45X1 iQ1:SiliconNXG308UTiSiXG301X1 3.6061e-22
C_0_144 BL:LM00Cobalt2XG546ULM40Cobalt5XG45X1 iQ1:n1d 1.5448e-21
C_0_145 BL:LM00Cobalt2XG546ULM40Cobalt5XG45X1 iQ1:n2s 1.5448e-21
C_0_146 BL:LM00Cobalt2XG546ULM40Cobalt5XG45X1 iQ1:n4g 6.6696e-22
C_0_147 BL:LM00Cobalt2XG546ULM40Cobalt5XG45X1 iQ1:p1d 1.6553e-21
C_0_148 BL:LM00Cobalt2XG546ULM40Cobalt5XG45X1 iQ1:p2g 1.4086e-21
C_0_149 BL:LM00Cobalt2XG546ULM40Cobalt5XG45X1 iQ2:LM00Cobalt2XG151ULM10Tungsten1XG149X1 1.8933e-19
C_0_150 BL:LM00Cobalt2XG546ULM40Cobalt5XG45X1 iQ2:LM00Cobalt2XG151USiGeBXG294X1 3.9418e-22
C_0_151 BL:LM00Cobalt2XG546ULM40Cobalt5XG45X1 iQ2:LM00Cobalt2XG151UTiSiXG305X1 3.7531e-22
C_0_152 BL:LM00Cobalt2XG546ULM40Cobalt5XG45X1 iQ2:LM00Cobalt2XG151UTiSiXG306X1 3.7522e-22
C_0_153 BL:LM00Cobalt2XG546ULM40Cobalt5XG45X1 iQ2:SDexcludeXG272UTiSiXG305X1 6.0784e-22
C_0_154 BL:LM00Cobalt2XG546ULM40Cobalt5XG45X1 iQ2:SDexcludeXG279UTiSiXG306X1 2.4381e-22
C_0_155 BL:LM00Cobalt2XG546ULM40Cobalt5XG45X1 iQ2:SDexcludeXG280UTiSiXG306X1 2.1529e-22
C_0_156 BL:LM00Cobalt2XG546ULM40Cobalt5XG45X1 iQ2:SiGeBXG294UTiSiXG305X1 1.9138e-23
C_0_157 BL:LM00Cobalt2XG546ULM40Cobalt5XG45X1 iQ2:SiGeBXG296UTiSiXG305X1 1.4294e-25
C_0_158 BL:LM00Cobalt2XG546ULM40Cobalt5XG45X1 iQ2:SiGeBXG336UTiSiXG305X1 1.3757e-25
C_0_159 BL:LM00Cobalt2XG546ULM40Cobalt5XG45X1 iQ2:SiliconNXG311UTiSiXG306X1 1.3274e-23
C_0_160 BL:LM00Cobalt2XG546ULM40Cobalt5XG45X1 iQ2:n1g 1.5241e-21
C_0_161 BL:LM00Cobalt2XG546ULM40Cobalt5XG45X1 iQ2:n3d 4.7225e-22
C_0_162 BL:LM00Cobalt2XG546ULM40Cobalt5XG45X1 iQ2:n4s 4.7225e-22
C_0_163 BL:LM00Cobalt2XG546ULM40Cobalt5XG45X1 iQ2:p1g 5.2101e-22
C_0_164 BL:LM00Cobalt2XG546ULM40Cobalt5XG45X1 iQ2:p2s 6.2670e-22
C_0_165 BL:LM00Cobalt2XG546UTiSiXG535X1 BLB:LM00Cobalt2XG70ULM40Cobalt5XG76X1 6.4275e-22
C_0_166 BL:LM00Cobalt2XG546UTiSiXG535X1 BLB:LM00Cobalt2XG70UTiSiXG71X1 2.3552e-23
C_0_167 BL:LM00Cobalt2XG546UTiSiXG535X1 BLB:SiliconNXG72UTiSiXG71X1 1.9513e-22
C_0_168 BL:LM00Cobalt2XG546UTiSiXG535X1 BLB:n3s 1.4385e-21
C_0_169 BL:LM00Cobalt2XG546UTiSiXG535X1 WL:LM00Cobalt2XG102ULM10Tungsten1XG167X1 7.3449e-22
C_0_170 BL:LM00Cobalt2XG546UTiSiXG535X1 WL:LM00Cobalt2XG102ULM40Cobalt5XG90X1 1.5276e-24
C_0_171 BL:LM00Cobalt2XG546UTiSiXG535X1 WL:LM00Cobalt2XG357ULM10Tungsten1XG375X1 2.0750e-18
C_0_172 BL:LM00Cobalt2XG546UTiSiXG535X1 WL:LM00Cobalt2XG357ULM40Cobalt5XG285X1 2.8704e-19
C_0_173 BL:LM00Cobalt2XG546UTiSiXG535X1 WL:LM20Cobalt3XG327ULM30Cobalt4XG122X1 8.2003e-21
C_0_174 BL:LM00Cobalt2XG546UTiSiXG535X1 WL:LM20Cobalt3XG327ULM40Cobalt5XG285X1 9.1594e-20
C_0_175 BL:LM00Cobalt2XG546UTiSiXG535X1 WL:LM20Cobalt3XG98ULM30Cobalt4XG122X1 1.3063e-21
C_0_176 BL:LM00Cobalt2XG546UTiSiXG535X1 WL:LM20Cobalt3XG98ULM40Cobalt5XG90X1 6.1079e-25
C_0_177 BL:LM00Cobalt2XG546UTiSiXG535X1 WL:n2g 1.8784e-19
C_0_178 BL:LM00Cobalt2XG546UTiSiXG535X1 WL:n3g 4.9673e-22
C_0_179 BL:LM00Cobalt2XG546UTiSiXG535X1 iQ1:LM00Cobalt2XG314ULM10Tungsten1XG376X1 5.2029e-19
C_0_180 BL:LM00Cobalt2XG546UTiSiXG535X1 iQ1:LM00Cobalt2XG314USiGeBXG291X1 7.9218e-20
C_0_181 BL:LM00Cobalt2XG546UTiSiXG535X1 iQ1:LM00Cobalt2XG314UTiSiXG301X1 7.8780e-20
C_0_182 BL:LM00Cobalt2XG546UTiSiXG535X1 iQ1:LM00Cobalt2XG314UTiSiXG302X1 7.8739e-20
C_0_183 BL:LM00Cobalt2XG546UTiSiXG535X1 iQ1:SDexcludeXG271UTiSiXG302X1 1.1621e-21
C_0_184 BL:LM00Cobalt2XG546UTiSiXG535X1 iQ1:SDexcludeXG277UTiSiXG301X1 6.1320e-22
C_0_185 BL:LM00Cobalt2XG546UTiSiXG535X1 iQ1:SDexcludeXG278UTiSiXG301X1 7.0504e-22
C_0_186 BL:LM00Cobalt2XG546UTiSiXG535X1 iQ1:SiGeBXG291UTiSiXG302X1 4.8914e-22
C_0_187 BL:LM00Cobalt2XG546UTiSiXG535X1 iQ1:SiGeBXG292UTiSiXG302X1 5.2278e-24
C_0_188 BL:LM00Cobalt2XG546UTiSiXG535X1 iQ1:SiGeBXG331UTiSiXG302X1 5.2280e-24
C_0_189 BL:LM00Cobalt2XG546UTiSiXG535X1 iQ1:SiGeBXG335UTiSiXG302X1 5.2278e-24
C_0_190 BL:LM00Cobalt2XG546UTiSiXG535X1 iQ1:SiliconNXG308UTiSiXG301X1 3.2068e-22
C_0_191 BL:LM00Cobalt2XG546UTiSiXG535X1 iQ1:n1d 1.5020e-21
C_0_192 BL:LM00Cobalt2XG546UTiSiXG535X1 iQ1:n2s 1.5020e-21
C_0_193 BL:LM00Cobalt2XG546UTiSiXG535X1 iQ1:n4g 6.6120e-22
C_0_194 BL:LM00Cobalt2XG546UTiSiXG535X1 iQ1:p1d 1.6408e-21
C_0_195 BL:LM00Cobalt2XG546UTiSiXG535X1 iQ1:p2g 1.3974e-21
C_0_196 BL:LM00Cobalt2XG546UTiSiXG535X1 iQ2:LM00Cobalt2XG151ULM10Tungsten1XG149X1 3.8011e-21
C_0_197 BL:LM00Cobalt2XG546UTiSiXG535X1 iQ2:LM00Cobalt2XG151USiGeBXG294X1 1.3100e-22
C_0_198 BL:LM00Cobalt2XG546UTiSiXG535X1 iQ2:LM00Cobalt2XG151UTiSiXG305X1 1.1473e-22
C_0_199 BL:LM00Cobalt2XG546UTiSiXG535X1 iQ2:LM00Cobalt2XG151UTiSiXG306X1 1.1468e-22
C_0_200 BL:LM00Cobalt2XG546UTiSiXG535X1 iQ2:SDexcludeXG272UTiSiXG305X1 6.0136e-22
C_0_201 BL:LM00Cobalt2XG546UTiSiXG535X1 iQ2:SDexcludeXG279UTiSiXG306X1 2.4096e-22
C_0_202 BL:LM00Cobalt2XG546UTiSiXG535X1 iQ2:SDexcludeXG280UTiSiXG306X1 2.1308e-22
C_0_203 BL:LM00Cobalt2XG546UTiSiXG535X1 iQ2:SiGeBXG294UTiSiXG305X1 1.6420e-23
C_0_204 BL:LM00Cobalt2XG546UTiSiXG535X1 iQ2:SiGeBXG296UTiSiXG305X1 7.8016e-26
C_0_205 BL:LM00Cobalt2XG546UTiSiXG535X1 iQ2:SiGeBXG336UTiSiXG305X1 7.5565e-26
C_0_206 BL:LM00Cobalt2XG546UTiSiXG535X1 iQ2:SiliconNXG311UTiSiXG306X1 1.2971e-23
C_0_207 BL:LM00Cobalt2XG546UTiSiXG535X1 iQ2:n1g 8.9547e-22
C_0_208 BL:LM00Cobalt2XG546UTiSiXG535X1 iQ2:n3d 4.6693e-22
C_0_209 BL:LM00Cobalt2XG546UTiSiXG535X1 iQ2:n4s 4.6693e-22
C_0_210 BL:LM00Cobalt2XG546UTiSiXG535X1 iQ2:p1g 4.0525e-22
C_0_211 BL:LM00Cobalt2XG546UTiSiXG535X1 iQ2:p2s 6.1763e-22
C_0_212 BL:SiliconNXG527UTiSiXG535X1 BLB:LM00Cobalt2XG70ULM40Cobalt5XG76X1 3.3246e-22
C_0_213 BL:SiliconNXG527UTiSiXG535X1 BLB:LM00Cobalt2XG70UTiSiXG71X1 1.8504e-22
C_0_214 BL:SiliconNXG527UTiSiXG535X1 BLB:SiliconNXG72UTiSiXG71X1 1.5207e-21
C_0_215 BL:SiliconNXG527UTiSiXG535X1 BLB:n3s 1.1107e-20
C_0_216 BL:SiliconNXG527UTiSiXG535X1 WL:LM00Cobalt2XG102ULM10Tungsten1XG167X1 5.5403e-21
C_0_217 BL:SiliconNXG527UTiSiXG535X1 WL:LM00Cobalt2XG102ULM40Cobalt5XG90X1 1.1243e-23
C_0_218 BL:SiliconNXG527UTiSiXG535X1 WL:LM00Cobalt2XG357ULM10Tungsten1XG375X1 2.2402e-18
C_0_219 BL:SiliconNXG527UTiSiXG535X1 WL:LM00Cobalt2XG357ULM40Cobalt5XG285X1 7.6892e-20
C_0_220 BL:SiliconNXG527UTiSiXG535X1 WL:LM20Cobalt3XG327ULM30Cobalt4XG122X1 1.3266e-21
C_0_221 BL:SiliconNXG527UTiSiXG535X1 WL:LM20Cobalt3XG327ULM40Cobalt5XG285X1 1.2000e-20
C_0_222 BL:SiliconNXG527UTiSiXG535X1 WL:LM20Cobalt3XG98ULM30Cobalt4XG122X1 1.5037e-22
C_0_223 BL:SiliconNXG527UTiSiXG535X1 WL:LM20Cobalt3XG98ULM40Cobalt5XG90X1 4.0264e-24
C_0_224 BL:SiliconNXG527UTiSiXG535X1 WL:n2g 4.7774e-21
C_0_225 BL:SiliconNXG527UTiSiXG535X1 WL:n3g 2.8476e-23
C_0_226 BL:SiliconNXG527UTiSiXG535X1 iQ1:LM00Cobalt2XG314ULM10Tungsten1XG376X1 2.7617e-19
C_0_227 BL:SiliconNXG527UTiSiXG535X1 iQ1:LM00Cobalt2XG314USiGeBXG291X1 4.2859e-21
C_0_228 BL:SiliconNXG527UTiSiXG535X1 iQ1:LM00Cobalt2XG314UTiSiXG301X1 3.5158e-21
C_0_229 BL:SiliconNXG527UTiSiXG535X1 iQ1:LM00Cobalt2XG314UTiSiXG302X1 3.4982e-21
C_0_230 BL:SiliconNXG527UTiSiXG535X1 iQ1:SDexcludeXG271UTiSiXG302X1 7.2553e-21
C_0_231 BL:SiliconNXG527UTiSiXG535X1 iQ1:SDexcludeXG277UTiSiXG301X1 6.5781e-21
C_0_232 BL:SiliconNXG527UTiSiXG535X1 iQ1:SDexcludeXG278UTiSiXG301X1 6.1402e-21
C_0_233 BL:SiliconNXG527UTiSiXG535X1 iQ1:SiGeBXG291UTiSiXG302X1 7.9292e-22
C_0_234 BL:SiliconNXG527UTiSiXG535X1 iQ1:SiGeBXG292UTiSiXG302X1 2.6206e-24
C_0_235 BL:SiliconNXG527UTiSiXG535X1 iQ1:SiGeBXG331UTiSiXG302X1 2.6193e-24
C_0_236 BL:SiliconNXG527UTiSiXG535X1 iQ1:SiGeBXG335UTiSiXG302X1 2.6159e-24
C_0_237 BL:SiliconNXG527UTiSiXG535X1 iQ1:SiliconNXG308UTiSiXG301X1 7.1705e-22
C_0_238 BL:SiliconNXG527UTiSiXG535X1 iQ1:n1d 1.3375e-20
C_0_239 BL:SiliconNXG527UTiSiXG535X1 iQ1:n2s 1.3375e-20
C_0_240 BL:SiliconNXG527UTiSiXG535X1 iQ1:n4g 3.5427e-23
C_0_241 BL:SiliconNXG527UTiSiXG535X1 iQ1:p1d 8.0430e-21
C_0_242 BL:SiliconNXG527UTiSiXG535X1 iQ1:p2g 6.1170e-23
C_0_243 BL:SiliconNXG527UTiSiXG535X1 iQ2:LM00Cobalt2XG151ULM10Tungsten1XG149X1 2.3332e-20
C_0_244 BL:SiliconNXG527UTiSiXG535X1 iQ2:LM00Cobalt2XG151USiGeBXG294X1 1.2361e-22
C_0_245 BL:SiliconNXG527UTiSiXG535X1 iQ2:LM00Cobalt2XG151UTiSiXG305X1 2.6279e-23
C_0_246 BL:SiliconNXG527UTiSiXG535X1 iQ2:LM00Cobalt2XG151UTiSiXG306X1 2.6452e-23
C_0_247 BL:SiliconNXG527UTiSiXG535X1 iQ2:SDexcludeXG272UTiSiXG305X1 3.9004e-21
C_0_248 BL:SiliconNXG527UTiSiXG535X1 iQ2:SDexcludeXG279UTiSiXG306X1 1.7084e-21
C_0_249 BL:SiliconNXG527UTiSiXG535X1 iQ2:SDexcludeXG280UTiSiXG306X1 1.5623e-21
C_0_250 BL:SiliconNXG527UTiSiXG535X1 iQ2:SiGeBXG294UTiSiXG305X1 9.7361e-23
C_0_251 BL:SiliconNXG527UTiSiXG535X1 iQ2:SiGeBXG296UTiSiXG305X1 3.1480e-26
C_0_252 BL:SiliconNXG527UTiSiXG535X1 iQ2:SiGeBXG336UTiSiXG305X1 1.7864e-26
C_0_253 BL:SiliconNXG527UTiSiXG535X1 iQ2:SiliconNXG311UTiSiXG306X1 9.2581e-23
C_0_254 BL:SiliconNXG527UTiSiXG535X1 iQ2:n1g 5.4398e-23
C_0_255 BL:SiliconNXG527UTiSiXG535X1 iQ2:n3d 3.3627e-21
C_0_256 BL:SiliconNXG527UTiSiXG535X1 iQ2:n4s 3.3627e-21
C_0_257 BL:SiliconNXG527UTiSiXG535X1 iQ2:p1g 2.3301e-23
C_0_258 BL:SiliconNXG527UTiSiXG535X1 iQ2:p2s 3.9977e-21
C_0_259 BL:n2d BLB:LM00Cobalt2XG70ULM40Cobalt5XG76X1 1.5727e-21
C_0_260 BL:n2d BLB:LM00Cobalt2XG70UTiSiXG71X1 1.3674e-21
C_0_261 BL:n2d BLB:SiliconNXG72UTiSiXG71X1 1.1138e-20
C_0_262 BL:n2d BLB:n3s 8.0972e-20
C_0_263 BL:n2d WL:LM00Cobalt2XG102ULM10Tungsten1XG167X1 4.0050e-20
C_0_264 BL:n2d WL:LM00Cobalt2XG102ULM40Cobalt5XG90X1 8.2039e-23
C_0_265 BL:n2d WL:LM00Cobalt2XG357ULM10Tungsten1XG375X1 5.4318e-18
C_0_266 BL:n2d WL:LM00Cobalt2XG357ULM40Cobalt5XG285X1 8.4106e-20
C_0_267 BL:n2d WL:LM20Cobalt3XG327ULM30Cobalt4XG122X1 1.4047e-21
C_0_268 BL:n2d WL:LM20Cobalt3XG327ULM40Cobalt5XG285X1 1.2730e-20
C_0_269 BL:n2d WL:LM20Cobalt3XG98ULM30Cobalt4XG122X1 1.6223e-22
C_0_270 BL:n2d WL:LM20Cobalt3XG98ULM40Cobalt5XG90X1 2.9311e-23
C_0_271 BL:n2d iQ1:LM00Cobalt2XG314ULM10Tungsten1XG376X1 5.8911e-19
C_0_272 BL:n2d iQ1:LM00Cobalt2XG314USiGeBXG291X1 6.6276e-21
C_0_273 BL:n2d iQ1:LM00Cobalt2XG314UTiSiXG301X1 4.2711e-21
C_0_274 BL:n2d iQ1:LM00Cobalt2XG314UTiSiXG302X1 4.2393e-21
C_0_275 BL:n2d iQ1:SDexcludeXG271UTiSiXG302X1 5.0684e-20
C_0_276 BL:n2d iQ1:SDexcludeXG277UTiSiXG301X1 1.0550e-19
C_0_277 BL:n2d iQ1:SDexcludeXG278UTiSiXG301X1 9.8841e-20
C_0_278 BL:n2d iQ1:SiGeBXG291UTiSiXG302X1 2.3948e-21
C_0_279 BL:n2d iQ1:SiGeBXG292UTiSiXG302X1 3.2834e-24
C_0_280 BL:n2d iQ1:SiGeBXG331UTiSiXG302X1 3.2976e-24
C_0_281 BL:n2d iQ1:SiGeBXG335UTiSiXG302X1 3.2713e-24
C_0_282 BL:n2d iQ1:SiliconNXG308UTiSiXG301X1 4.2363e-21
C_0_283 BL:n2d iQ1:n1d 2.0847e-19
C_0_284 BL:n2d iQ1:n2s 2.0847e-19
C_0_285 BL:n2d iQ1:p1d 5.3073e-20
C_0_286 BL:n2d iQ2:LM00Cobalt2XG151ULM10Tungsten1XG149X1 1.8925e-19
C_0_287 BL:n2d iQ2:LM00Cobalt2XG151USiGeBXG294X1 7.5468e-22
C_0_288 BL:n2d iQ2:LM00Cobalt2XG151UTiSiXG305X1 8.6290e-23
C_0_289 BL:n2d iQ2:LM00Cobalt2XG151UTiSiXG306X1 8.7577e-23
C_0_290 BL:n2d iQ2:SDexcludeXG272UTiSiXG305X1 2.6550e-20
C_0_291 BL:n2d iQ2:SDexcludeXG279UTiSiXG306X1 1.2080e-20
C_0_292 BL:n2d iQ2:SDexcludeXG280UTiSiXG306X1 1.1173e-20
C_0_293 BL:n2d iQ2:SiGeBXG294UTiSiXG305X1 6.6850e-22
C_0_294 BL:n2d iQ2:SiGeBXG296UTiSiXG305X1 1.0788e-25
C_0_295 BL:n2d iQ2:SiGeBXG336UTiSiXG305X1 6.0927e-26
C_0_296 BL:n2d iQ2:SiliconNXG311UTiSiXG306X1 6.5622e-22
C_0_297 BL:n2d iQ2:n3d 2.3906e-20
C_0_298 BL:n2d iQ2:n4s 2.3906e-20
C_0_299 BL:n2d iQ2:p2s 2.7219e-20
R_0_0 BLD BLU 1.1537e+01
R_0_1 BLD BL:LM00Cobalt2XG546ULM40Cobalt5XG45X1 3.3910e+01
R_0_2 BLU BL:LM00Cobalt2XG546ULM40Cobalt5XG45X1 1.0187e+03
R_0_3 BL:LM00Cobalt2XG546ULM40Cobalt5XG45X1 BL:LM00Cobalt2XG546UTiSiXG535X1 5.7614e+01
R_0_4 BL:LM00Cobalt2XG546UTiSiXG535X1 BL:SiliconNXG527UTiSiXG535X1 1.7735e+02
R_0_5 BL:SiliconNXG527UTiSiXG535X1 BL:n2d 2.1217e+01

*|NET BLB 4.8157e-05PF
C_1_0 BLBD WLL 3.6273e-19
C_1_1 BLBD WLR 3.6273e-19
C_1_2 BLBD WL:LM00Cobalt2XG102ULM10Tungsten1XG167X1 1.6861e-19
C_1_3 BLBD WL:LM00Cobalt2XG102ULM40Cobalt5XG90X1 8.2779e-19
C_1_4 BLBD WL:LM00Cobalt2XG357ULM10Tungsten1XG375X1 1.5497e-22
C_1_5 BLBD WL:LM00Cobalt2XG357ULM40Cobalt5XG285X1 1.0941e-23
C_1_6 BLBD WL:LM20Cobalt3XG327ULM30Cobalt4XG122X1 3.6274e-19
C_1_7 BLBD WL:LM20Cobalt3XG327ULM40Cobalt5XG285X1 1.2372e-23
C_1_8 BLBD WL:LM20Cobalt3XG98ULM30Cobalt4XG122X1 4.7442e-19
C_1_9 BLBD WL:LM20Cobalt3XG98ULM40Cobalt5XG90X1 8.9612e-19
C_1_10 BLBD WL:n2g 4.5572e-23
C_1_11 BLBD WL:n3g 8.4353e-22
C_1_12 BLBD iQ1:LM00Cobalt2XG314ULM10Tungsten1XG376X1 1.8571e-19
C_1_13 BLBD iQ1:LM00Cobalt2XG314USiGeBXG291X1 2.6287e-22
C_1_14 BLBD iQ1:LM00Cobalt2XG314UTiSiXG301X1 2.5943e-22
C_1_15 BLBD iQ1:LM00Cobalt2XG314UTiSiXG302X1 2.5946e-22
C_1_16 BLBD iQ1:SDexcludeXG271UTiSiXG302X1 3.9382e-23
C_1_17 BLBD iQ1:SDexcludeXG277UTiSiXG301X1 1.4165e-23
C_1_18 BLBD iQ1:SDexcludeXG278UTiSiXG301X1 1.6241e-23
C_1_19 BLBD iQ1:SiGeBXG291UTiSiXG302X1 3.5138e-24
C_1_20 BLBD iQ1:SiGeBXG292UTiSiXG302X1 5.2062e-26
C_1_21 BLBD iQ1:SiGeBXG331UTiSiXG302X1 5.0244e-26
C_1_22 BLBD iQ1:SiGeBXG335UTiSiXG302X1 5.0222e-26
C_1_23 BLBD iQ1:SiliconNXG308UTiSiXG301X1 1.0261e-24
C_1_24 BLBD iQ1:n1d 3.1387e-23
C_1_25 BLBD iQ1:n2s 3.1387e-23
C_1_26 BLBD iQ1:n4g 6.8597e-22
C_1_27 BLBD iQ1:p1d 4.2795e-23
C_1_28 BLBD iQ1:p2g 1.3856e-22
C_1_29 BLBD iQ2:LM00Cobalt2XG151ULM10Tungsten1XG149X1 2.3256e-19
C_1_30 BLBD iQ2:LM00Cobalt2XG151USiGeBXG294X1 2.0985e-19
C_1_31 BLBD iQ2:LM00Cobalt2XG151UTiSiXG305X1 2.0983e-19
C_1_32 BLBD iQ2:LM00Cobalt2XG151UTiSiXG306X1 2.0985e-19
C_1_33 BLBD iQ2:SDexcludeXG272UTiSiXG305X1 6.6255e-23
C_1_34 BLBD iQ2:SDexcludeXG279UTiSiXG306X1 7.3194e-23
C_1_35 BLBD iQ2:SDexcludeXG280UTiSiXG306X1 7.1314e-23
C_1_36 BLBD iQ2:SiGeBXG294UTiSiXG305X1 1.8189e-23
C_1_37 BLBD iQ2:SiGeBXG296UTiSiXG305X1 6.3709e-25
C_1_38 BLBD iQ2:SiGeBXG336UTiSiXG305X1 6.3792e-25
C_1_39 BLBD iQ2:SiliconNXG311UTiSiXG306X1 5.9216e-23
C_1_40 BLBD iQ2:n1g 4.0997e-23
C_1_41 BLBD iQ2:n3d 1.3216e-22
C_1_42 BLBD iQ2:n4s 1.3216e-22
C_1_43 BLBD iQ2:p1g 7.3013e-23
C_1_44 BLBD iQ2:p2s 8.3171e-23
C_1_45 BLBU WLL 3.6273e-19
C_1_46 BLBU WLR 3.6273e-19
C_1_47 BLBU WL:LM00Cobalt2XG102ULM10Tungsten1XG167X1 1.6861e-19
C_1_48 BLBU WL:LM00Cobalt2XG102ULM40Cobalt5XG90X1 8.2779e-19
C_1_49 BLBU WL:LM00Cobalt2XG357ULM10Tungsten1XG375X1 1.5497e-22
C_1_50 BLBU WL:LM00Cobalt2XG357ULM40Cobalt5XG285X1 1.0941e-23
C_1_51 BLBU WL:LM20Cobalt3XG327ULM30Cobalt4XG122X1 3.6274e-19
C_1_52 BLBU WL:LM20Cobalt3XG327ULM40Cobalt5XG285X1 1.2372e-23
C_1_53 BLBU WL:LM20Cobalt3XG98ULM30Cobalt4XG122X1 4.7442e-19
C_1_54 BLBU WL:LM20Cobalt3XG98ULM40Cobalt5XG90X1 8.9612e-19
C_1_55 BLBU WL:n2g 4.5572e-23
C_1_56 BLBU WL:n3g 8.4353e-22
C_1_57 BLBU iQ1:LM00Cobalt2XG314ULM10Tungsten1XG376X1 1.8571e-19
C_1_58 BLBU iQ1:LM00Cobalt2XG314USiGeBXG291X1 2.6287e-22
C_1_59 BLBU iQ1:LM00Cobalt2XG314UTiSiXG301X1 2.5943e-22
C_1_60 BLBU iQ1:LM00Cobalt2XG314UTiSiXG302X1 2.5946e-22
C_1_61 BLBU iQ1:SDexcludeXG271UTiSiXG302X1 3.9382e-23
C_1_62 BLBU iQ1:SDexcludeXG277UTiSiXG301X1 1.4165e-23
C_1_63 BLBU iQ1:SDexcludeXG278UTiSiXG301X1 1.6241e-23
C_1_64 BLBU iQ1:SiGeBXG291UTiSiXG302X1 3.5138e-24
C_1_65 BLBU iQ1:SiGeBXG292UTiSiXG302X1 5.2062e-26
C_1_66 BLBU iQ1:SiGeBXG331UTiSiXG302X1 5.0244e-26
C_1_67 BLBU iQ1:SiGeBXG335UTiSiXG302X1 5.0222e-26
C_1_68 BLBU iQ1:SiliconNXG308UTiSiXG301X1 1.0261e-24
C_1_69 BLBU iQ1:n1d 3.1387e-23
C_1_70 BLBU iQ1:n2s 3.1387e-23
C_1_71 BLBU iQ1:n4g 6.8597e-22
C_1_72 BLBU iQ1:p1d 4.2795e-23
C_1_73 BLBU iQ1:p2g 1.3856e-22
C_1_74 BLBU iQ2:LM00Cobalt2XG151ULM10Tungsten1XG149X1 2.3256e-19
C_1_75 BLBU iQ2:LM00Cobalt2XG151USiGeBXG294X1 2.0985e-19
C_1_76 BLBU iQ2:LM00Cobalt2XG151UTiSiXG305X1 2.0983e-19
C_1_77 BLBU iQ2:LM00Cobalt2XG151UTiSiXG306X1 2.0985e-19
C_1_78 BLBU iQ2:SDexcludeXG272UTiSiXG305X1 6.6255e-23
C_1_79 BLBU iQ2:SDexcludeXG279UTiSiXG306X1 7.3194e-23
C_1_80 BLBU iQ2:SDexcludeXG280UTiSiXG306X1 7.1314e-23
C_1_81 BLBU iQ2:SiGeBXG294UTiSiXG305X1 1.8189e-23
C_1_82 BLBU iQ2:SiGeBXG296UTiSiXG305X1 6.3709e-25
C_1_83 BLBU iQ2:SiGeBXG336UTiSiXG305X1 6.3792e-25
C_1_84 BLBU iQ2:SiliconNXG311UTiSiXG306X1 5.9216e-23
C_1_85 BLBU iQ2:n1g 4.0997e-23
C_1_86 BLBU iQ2:n3d 1.3216e-22
C_1_87 BLBU iQ2:n4s 1.3216e-22
C_1_88 BLBU iQ2:p1g 7.3013e-23
C_1_89 BLBU iQ2:p2s 8.3171e-23
C_1_90 WLL BLB:LM00Cobalt2XG70ULM40Cobalt5XG76X1 3.6393e-19
C_1_91 WLL BLB:LM00Cobalt2XG70UTiSiXG71X1 1.2037e-21
C_1_92 WLL BLB:SiliconNXG72UTiSiXG71X1 1.3595e-22
C_1_93 WLL BLB:n3s 1.4651e-22
C_1_94 WLR BLB:LM00Cobalt2XG70ULM40Cobalt5XG76X1 3.6393e-19
C_1_95 WLR BLB:LM00Cobalt2XG70UTiSiXG71X1 1.2037e-21
C_1_96 WLR BLB:SiliconNXG72UTiSiXG71X1 1.3595e-22
C_1_97 WLR BLB:n3s 1.4651e-22
C_1_98 BLB:LM00Cobalt2XG70ULM40Cobalt5XG76X1 WL:LM00Cobalt2XG102ULM10Tungsten1XG167X1 2.2034e-18
C_1_99 BLB:LM00Cobalt2XG70ULM40Cobalt5XG76X1 WL:LM00Cobalt2XG102ULM40Cobalt5XG90X1 1.1382e-18
C_1_100 BLB:LM00Cobalt2XG70ULM40Cobalt5XG76X1 WL:LM00Cobalt2XG357ULM10Tungsten1XG375X1 8.0944e-22
C_1_101 BLB:LM00Cobalt2XG70ULM40Cobalt5XG76X1 WL:LM00Cobalt2XG357ULM40Cobalt5XG285X1 1.2256e-23
C_1_102 BLB:LM00Cobalt2XG70ULM40Cobalt5XG76X1 WL:LM20Cobalt3XG327ULM30Cobalt4XG122X1 3.6393e-19
C_1_103 BLB:LM00Cobalt2XG70ULM40Cobalt5XG76X1 WL:LM20Cobalt3XG327ULM40Cobalt5XG285X1 1.2860e-23
C_1_104 BLB:LM00Cobalt2XG70ULM40Cobalt5XG76X1 WL:LM20Cobalt3XG98ULM30Cobalt4XG122X1 4.7791e-19
C_1_105 BLB:LM00Cobalt2XG70ULM40Cobalt5XG76X1 WL:LM20Cobalt3XG98ULM40Cobalt5XG90X1 1.0131e-18
C_1_106 BLB:LM00Cobalt2XG70ULM40Cobalt5XG76X1 WL:n2g 4.8779e-22
C_1_107 BLB:LM00Cobalt2XG70ULM40Cobalt5XG76X1 WL:n3g 1.8202e-19
C_1_108 BLB:LM00Cobalt2XG70ULM40Cobalt5XG76X1 iQ1:LM00Cobalt2XG314ULM10Tungsten1XG376X1 1.8913e-19
C_1_109 BLB:LM00Cobalt2XG70ULM40Cobalt5XG76X1 iQ1:LM00Cobalt2XG314USiGeBXG291X1 3.8530e-22
C_1_110 BLB:LM00Cobalt2XG70ULM40Cobalt5XG76X1 iQ1:LM00Cobalt2XG314UTiSiXG301X1 3.6728e-22
C_1_111 BLB:LM00Cobalt2XG70ULM40Cobalt5XG76X1 iQ1:LM00Cobalt2XG314UTiSiXG302X1 3.6734e-22
C_1_112 BLB:LM00Cobalt2XG70ULM40Cobalt5XG76X1 iQ1:SDexcludeXG271UTiSiXG302X1 5.7526e-22
C_1_113 BLB:LM00Cobalt2XG70ULM40Cobalt5XG76X1 iQ1:SDexcludeXG277UTiSiXG301X1 2.0400e-22
C_1_114 BLB:LM00Cobalt2XG70ULM40Cobalt5XG76X1 iQ1:SDexcludeXG278UTiSiXG301X1 2.3086e-22
C_1_115 BLB:LM00Cobalt2XG70ULM40Cobalt5XG76X1 iQ1:SiGeBXG291UTiSiXG302X1 1.8178e-23
C_1_116 BLB:LM00Cobalt2XG70ULM40Cobalt5XG76X1 iQ1:SiGeBXG292UTiSiXG302X1 1.0917e-25
C_1_117 BLB:LM00Cobalt2XG70ULM40Cobalt5XG76X1 iQ1:SiGeBXG331UTiSiXG302X1 1.0673e-25
C_1_118 BLB:LM00Cobalt2XG70ULM40Cobalt5XG76X1 iQ1:SiGeBXG335UTiSiXG302X1 1.0647e-25
C_1_119 BLB:LM00Cobalt2XG70ULM40Cobalt5XG76X1 iQ1:SiliconNXG308UTiSiXG301X1 1.2670e-23
C_1_120 BLB:LM00Cobalt2XG70ULM40Cobalt5XG76X1 iQ1:n1d 4.4738e-22
C_1_121 BLB:LM00Cobalt2XG70ULM40Cobalt5XG76X1 iQ1:n2s 4.4738e-22
C_1_122 BLB:LM00Cobalt2XG70ULM40Cobalt5XG76X1 iQ1:n4g 1.4853e-21
C_1_123 BLB:LM00Cobalt2XG70ULM40Cobalt5XG76X1 iQ1:p1d 5.9323e-22
C_1_124 BLB:LM00Cobalt2XG70ULM40Cobalt5XG76X1 iQ1:p2g 5.0084e-22
C_1_125 BLB:LM00Cobalt2XG70ULM40Cobalt5XG76X1 iQ2:LM00Cobalt2XG151ULM10Tungsten1XG149X1 7.0915e-19
C_1_126 BLB:LM00Cobalt2XG70ULM40Cobalt5XG76X1 iQ2:LM00Cobalt2XG151USiGeBXG294X1 2.8622e-19
C_1_127 BLB:LM00Cobalt2XG70ULM40Cobalt5XG76X1 iQ2:LM00Cobalt2XG151UTiSiXG305X1 2.8578e-19
C_1_128 BLB:LM00Cobalt2XG70ULM40Cobalt5XG76X1 iQ2:LM00Cobalt2XG151UTiSiXG306X1 2.8584e-19
C_1_129 BLB:LM00Cobalt2XG70ULM40Cobalt5XG76X1 iQ2:SDexcludeXG272UTiSiXG305X1 1.0952e-21
C_1_130 BLB:LM00Cobalt2XG70ULM40Cobalt5XG76X1 iQ2:SDexcludeXG279UTiSiXG306X1 7.0266e-22
C_1_131 BLB:LM00Cobalt2XG70ULM40Cobalt5XG76X1 iQ2:SDexcludeXG280UTiSiXG306X1 6.2215e-22
C_1_132 BLB:LM00Cobalt2XG70ULM40Cobalt5XG76X1 iQ2:SiGeBXG294UTiSiXG305X1 4.5459e-22
C_1_133 BLB:LM00Cobalt2XG70ULM40Cobalt5XG76X1 iQ2:SiGeBXG296UTiSiXG305X1 5.7027e-24
C_1_134 BLB:LM00Cobalt2XG70ULM40Cobalt5XG76X1 iQ2:SiGeBXG336UTiSiXG305X1 5.7023e-24
C_1_135 BLB:LM00Cobalt2XG70ULM40Cobalt5XG76X1 iQ2:SiliconNXG311UTiSiXG306X1 3.4428e-22
C_1_136 BLB:LM00Cobalt2XG70ULM40Cobalt5XG76X1 iQ2:n1g 6.3090e-22
C_1_137 BLB:LM00Cobalt2XG70ULM40Cobalt5XG76X1 iQ2:n3d 1.4722e-21
C_1_138 BLB:LM00Cobalt2XG70ULM40Cobalt5XG76X1 iQ2:n4s 1.4722e-21
C_1_139 BLB:LM00Cobalt2XG70ULM40Cobalt5XG76X1 iQ2:p1g 1.3216e-21
C_1_140 BLB:LM00Cobalt2XG70ULM40Cobalt5XG76X1 iQ2:p2s 1.5384e-21
C_1_141 BLB:LM00Cobalt2XG70UTiSiXG71X1 WL:LM00Cobalt2XG102ULM10Tungsten1XG167X1 2.0481e-18
C_1_142 BLB:LM00Cobalt2XG70UTiSiXG71X1 WL:LM00Cobalt2XG102ULM40Cobalt5XG90X1 3.1181e-19
C_1_143 BLB:LM00Cobalt2XG70UTiSiXG71X1 WL:LM00Cobalt2XG357ULM10Tungsten1XG375X1 6.9800e-22
C_1_144 BLB:LM00Cobalt2XG70UTiSiXG71X1 WL:LM00Cobalt2XG357ULM40Cobalt5XG285X1 1.3952e-24
C_1_145 BLB:LM00Cobalt2XG70UTiSiXG71X1 WL:LM20Cobalt3XG327ULM30Cobalt4XG122X1 1.2037e-21
C_1_146 BLB:LM00Cobalt2XG70UTiSiXG71X1 WL:LM20Cobalt3XG327ULM40Cobalt5XG285X1 5.1345e-25
C_1_147 BLB:LM00Cobalt2XG70UTiSiXG71X1 WL:LM20Cobalt3XG98ULM30Cobalt4XG122X1 3.5086e-21
C_1_148 BLB:LM00Cobalt2XG70UTiSiXG71X1 WL:LM20Cobalt3XG98ULM40Cobalt5XG90X1 1.1748e-19
C_1_149 BLB:LM00Cobalt2XG70UTiSiXG71X1 WL:n2g 4.7163e-22
C_1_150 BLB:LM00Cobalt2XG70UTiSiXG71X1 WL:n3g 1.8588e-19
C_1_151 BLB:LM00Cobalt2XG70UTiSiXG71X1 iQ1:LM00Cobalt2XG314ULM10Tungsten1XG376X1 3.6263e-21
C_1_152 BLB:LM00Cobalt2XG70UTiSiXG71X1 iQ1:LM00Cobalt2XG314USiGeBXG291X1 1.2457e-22
C_1_153 BLB:LM00Cobalt2XG70UTiSiXG71X1 iQ1:LM00Cobalt2XG314UTiSiXG301X1 1.0914e-22
C_1_154 BLB:LM00Cobalt2XG70UTiSiXG71X1 iQ1:LM00Cobalt2XG314UTiSiXG302X1 1.0916e-22
C_1_155 BLB:LM00Cobalt2XG70UTiSiXG71X1 iQ1:SDexcludeXG271UTiSiXG302X1 5.7027e-22
C_1_156 BLB:LM00Cobalt2XG70UTiSiXG71X1 iQ1:SDexcludeXG277UTiSiXG301X1 2.0235e-22