*|TITLE Netlist generated by Raphael FX rcnetmerge
*|TITLE 1.1
*|TITLE Date Fri Apr 23 16:01:54 PDT 2021
*|PARAM cellnamefrom= raphaelfx
*|PARAM include= {}
*|PARAM instancefrom= raphaelnet
*|PARAM outputnet= n957_rph.spf
*|PARAM pingroup=  WL {WLL WLR} BL {BLU BLD} BLB {BLBU BLBD} 
*|PARAM pinsfrom= raphaelfx
*|PARAM raphaelnet= n957_rph.spi
*|PARAM referencenet= /nfs/pdx/disks/icf_sandp_gwa001/changyok/swb/SNPS_DTCO/TRD2/20201220/BIC2022_update20210412/2-RC_Extraction/2.01-BIC2022_FinFET_PEX_Nominal/sram_hd_wide.lvs

.SUBCKT array_flat BLBD BLBU BLD BLU VDD VSS WLL WLR VBP VBN

*|NETS BL BLB VDD VSS WL iQ1 iQ2

*|CAPACITANCE GRAND SUM 2.3756e-04PF
*|BLB WL 1.8150e-05PF
*|BLB iQ1 7.7551e-07PF
*|BLB iQ2 4.9087e-06PF
*|BL BLB 9.0025e-08PF
*|BL WL 1.7803e-05PF
*|BL iQ1 4.9021e-06PF
*|BL iQ2 7.4380e-07PF
*|VDD BL 1.1204e-05PF
*|VDD BLB 1.1194e-05PF
*|VDD VSS 9.9414e-06PF
*|VDD WL 6.8551e-06PF
*|VDD iQ1 1.3454e-05PF
*|VDD iQ2 1.3813e-05PF
*|VSS BL 7.5132e-06PF
*|VSS BLB 7.8163e-06PF
*|VSS WL 1.8793e-05PF
*|VSS iQ1 9.6806e-06PF
*|VSS iQ2 1.0032e-05PF
*|WL iQ1 1.5110e-05PF
*|WL iQ2 1.5336e-05PF
*|iQ1 iQ2 3.9443e-05PF

*|NET BL 4.2255e-05PF
C_0_0 BLBD BLD 2.0406e-21
C_0_1 BLBD BLU 2.0406e-21
C_0_2 BLBD BL:LM00Cobalt2XG492ULM40Cobalt5XG39X1 2.9979e-21
C_0_3 BLBD BL:LM00Cobalt2XG492UTiSiXG484X1 9.6778e-22
C_0_4 BLBD BL:SiliconNXG479UTiSiXG484X1 2.1293e-22
C_0_5 BLBD BL:n2d 3.3093e-22
C_0_6 BLBU BLD 2.0406e-21
C_0_7 BLBU BLU 2.0406e-21
C_0_8 BLBU BL:LM00Cobalt2XG492ULM40Cobalt5XG39X1 2.9979e-21
C_0_9 BLBU BL:LM00Cobalt2XG492UTiSiXG484X1 9.6778e-22
C_0_10 BLBU BL:SiliconNXG479UTiSiXG484X1 2.1293e-22
C_0_11 BLBU BL:n2d 3.3093e-22
C_0_12 BLD WLL 2.9253e-19
C_0_13 BLD WLR 2.9253e-19
C_0_14 BLD BLB:LM00Cobalt2XG63ULM40Cobalt5XG60X1 3.0044e-21
C_0_15 BLD BLB:LM00Cobalt2XG63UTiSiXG66X1 9.7432e-22
C_0_16 BLD BLB:SiliconNXG67UTiSiXG66X1 2.1084e-22
C_0_17 BLD BLB:n3s 3.2952e-22
C_0_18 BLD WL:LM00Cobalt2XG313ULM10Tungsten1XG328X1 1.5094e-19
C_0_19 BLD WL:LM00Cobalt2XG313ULM40Cobalt5XG256X1 7.4287e-19
C_0_20 BLD WL:LM00Cobalt2XG85ULM10Tungsten1XG145X1 2.4649e-22
C_0_21 BLD WL:LM00Cobalt2XG85ULM40Cobalt5XG77X1 5.4533e-23
C_0_22 BLD WL:LM20Cobalt3XG289ULM30Cobalt4XG102X1 4.2517e-19
C_0_23 BLD WL:LM20Cobalt3XG289ULM40Cobalt5XG256X1 8.1275e-19
C_0_24 BLD WL:LM20Cobalt3XG82ULM30Cobalt4XG102X1 2.9254e-19
C_0_25 BLD WL:LM20Cobalt3XG82ULM40Cobalt5XG77X1 5.2375e-23
C_0_26 BLD WL:n2g 7.4177e-22
C_0_27 BLD WL:n3g 4.1050e-23
C_0_28 BLD iQ1:LM00Cobalt2XG280ULM10Tungsten1XG329X1 2.1997e-19
C_0_29 BLD iQ1:LM00Cobalt2XG280USiGeBXG261X1 1.8655e-19
C_0_30 BLD iQ1:LM00Cobalt2XG280UTiSiXG274X1 1.8656e-19
C_0_31 BLD iQ1:LM00Cobalt2XG280UTiSiXG275X1 1.8653e-19
C_0_32 BLD iQ1:SDexcludeXG246UTiSiXG275X1 8.2521e-23
C_0_33 BLD iQ1:SDexcludeXG250UTiSiXG274X1 9.8108e-23
C_0_34 BLD iQ1:SiGeBXG261UTiSiXG275X1 2.5054e-23
C_0_35 BLD iQ1:SiGeBXG262UTiSiXG275X1 1.0660e-24
C_0_36 BLD iQ1:SiGeBXG265UTiSiXG275X1 1.0636e-24
C_0_37 BLD iQ1:SiGeBXG293UTiSiXG275X1 1.1152e-24
C_0_38 BLD iQ1:SiGeBXG297UTiSiXG275X1 1.0624e-24
C_0_39 BLD iQ1:SiliconNXG279UTiSiXG274X1 8.3541e-23
C_0_40 BLD iQ1:n1d 1.1006e-22
C_0_41 BLD iQ1:n2s 1.1006e-22
C_0_42 BLD iQ1:n4g 3.5897e-23
C_0_43 BLD iQ1:p1d 1.0545e-22
C_0_44 BLD iQ1:p2g 1.0106e-22
C_0_45 BLD iQ2:LM00Cobalt2XG117ULM10Tungsten1XG128X1 1.5949e-19
C_0_46 BLD iQ2:LM00Cobalt2XG117USiGeBXG266X1 5.2420e-22
C_0_47 BLD iQ2:LM00Cobalt2XG117UTiSiXG276X1 5.1745e-22
C_0_48 BLD iQ2:LM00Cobalt2XG117UTiSiXG277X1 5.1735e-22
C_0_49 BLD iQ2:SDexcludeXG247UTiSiXG276X1 4.9962e-23
C_0_50 BLD iQ2:SDexcludeXG251UTiSiXG277X1 2.3704e-23
C_0_51 BLD iQ2:SiGeBXG266UTiSiXG276X1 6.9836e-24
C_0_52 BLD iQ2:SiGeBXG267UTiSiXG276X1 1.1747e-25
C_0_53 BLD iQ2:SiGeBXG270UTiSiXG276X1 1.1506e-25
C_0_54 BLD iQ2:SiliconNXG281UTiSiXG277X1 1.1035e-24
C_0_55 BLD iQ2:n1g 4.5037e-22
C_0_56 BLD iQ2:n3d 2.4766e-23
C_0_57 BLD iQ2:n4s 2.4766e-23
C_0_58 BLD iQ2:p1g 1.9482e-22
C_0_59 BLD iQ2:p2s 5.6715e-23
C_0_60 BLU WLL 2.9253e-19
C_0_61 BLU WLR 2.9253e-19
C_0_62 BLU BLB:LM00Cobalt2XG63ULM40Cobalt5XG60X1 3.0044e-21
C_0_63 BLU BLB:LM00Cobalt2XG63UTiSiXG66X1 9.7432e-22
C_0_64 BLU BLB:SiliconNXG67UTiSiXG66X1 2.1084e-22
C_0_65 BLU BLB:n3s 3.2952e-22
C_0_66 BLU WL:LM00Cobalt2XG313ULM10Tungsten1XG328X1 1.5094e-19
C_0_67 BLU WL:LM00Cobalt2XG313ULM40Cobalt5XG256X1 7.4287e-19
C_0_68 BLU WL:LM00Cobalt2XG85ULM10Tungsten1XG145X1 2.4649e-22
C_0_69 BLU WL:LM00Cobalt2XG85ULM40Cobalt5XG77X1 5.4533e-23
C_0_70 BLU WL:LM20Cobalt3XG289ULM30Cobalt4XG102X1 4.2517e-19
C_0_71 BLU WL:LM20Cobalt3XG289ULM40Cobalt5XG256X1 8.1275e-19
C_0_72 BLU WL:LM20Cobalt3XG82ULM30Cobalt4XG102X1 2.9254e-19
C_0_73 BLU WL:LM20Cobalt3XG82ULM40Cobalt5XG77X1 5.2375e-23
C_0_74 BLU WL:n2g 7.4177e-22
C_0_75 BLU WL:n3g 4.1050e-23
C_0_76 BLU iQ1:LM00Cobalt2XG280ULM10Tungsten1XG329X1 2.1997e-19
C_0_77 BLU iQ1:LM00Cobalt2XG280USiGeBXG261X1 1.8655e-19
C_0_78 BLU iQ1:LM00Cobalt2XG280UTiSiXG274X1 1.8656e-19
C_0_79 BLU iQ1:LM00Cobalt2XG280UTiSiXG275X1 1.8653e-19
C_0_80 BLU iQ1:SDexcludeXG246UTiSiXG275X1 8.2521e-23
C_0_81 BLU iQ1:SDexcludeXG250UTiSiXG274X1 9.8108e-23
C_0_82 BLU iQ1:SiGeBXG261UTiSiXG275X1 2.5054e-23
C_0_83 BLU iQ1:SiGeBXG262UTiSiXG275X1 1.0660e-24
C_0_84 BLU iQ1:SiGeBXG265UTiSiXG275X1 1.0636e-24
C_0_85 BLU iQ1:SiGeBXG293UTiSiXG275X1 1.1152e-24
C_0_86 BLU iQ1:SiGeBXG297UTiSiXG275X1 1.0624e-24
C_0_87 BLU iQ1:SiliconNXG279UTiSiXG274X1 8.3541e-23
C_0_88 BLU iQ1:n1d 1.1006e-22
C_0_89 BLU iQ1:n2s 1.1006e-22
C_0_90 BLU iQ1:n4g 3.5897e-23
C_0_91 BLU iQ1:p1d 1.0545e-22
C_0_92 BLU iQ1:p2g 1.0106e-22
C_0_93 BLU iQ2:LM00Cobalt2XG117ULM10Tungsten1XG128X1 1.5949e-19
C_0_94 BLU iQ2:LM00Cobalt2XG117USiGeBXG266X1 5.2420e-22
C_0_95 BLU iQ2:LM00Cobalt2XG117UTiSiXG276X1 5.1745e-22
C_0_96 BLU iQ2:LM00Cobalt2XG117UTiSiXG277X1 5.1735e-22
C_0_97 BLU iQ2:SDexcludeXG247UTiSiXG276X1 4.9962e-23
C_0_98 BLU iQ2:SDexcludeXG251UTiSiXG277X1 2.3704e-23
C_0_99 BLU iQ2:SiGeBXG266UTiSiXG276X1 6.9836e-24
C_0_100 BLU iQ2:SiGeBXG267UTiSiXG276X1 1.1747e-25
C_0_101 BLU iQ2:SiGeBXG270UTiSiXG276X1 1.1506e-25
C_0_102 BLU iQ2:SiliconNXG281UTiSiXG277X1 1.1035e-24
C_0_103 BLU iQ2:n1g 4.5037e-22
C_0_104 BLU iQ2:n3d 2.4766e-23
C_0_105 BLU iQ2:n4s 2.4766e-23
C_0_106 BLU iQ2:p1g 1.9482e-22
C_0_107 BLU iQ2:p2s 5.6715e-23
C_0_108 WLL BL:LM00Cobalt2XG492ULM40Cobalt5XG39X1 2.9479e-19
C_0_109 WLL BL:LM00Cobalt2XG492UTiSiXG484X1 2.2605e-21
C_0_110 WLL BL:SiliconNXG479UTiSiXG484X1 1.0042e-22
C_0_111 WLL BL:n2d 1.0817e-22
C_0_112 WLR BL:LM00Cobalt2XG492ULM40Cobalt5XG39X1 2.9479e-19
C_0_113 WLR BL:LM00Cobalt2XG492UTiSiXG484X1 2.2605e-21
C_0_114 WLR BL:SiliconNXG479UTiSiXG484X1 1.0042e-22
C_0_115 WLR BL:n2d 1.0817e-22
C_0_116 BL:LM00Cobalt2XG492ULM40Cobalt5XG39X1 BLB:LM00Cobalt2XG63ULM40Cobalt5XG60X1 3.9830e-21
C_0_117 BL:LM00Cobalt2XG492ULM40Cobalt5XG39X1 BLB:LM00Cobalt2XG63UTiSiXG66X1 9.9682e-22
C_0_118 BL:LM00Cobalt2XG492ULM40Cobalt5XG39X1 BLB:SiliconNXG67UTiSiXG66X1 3.5558e-22
C_0_119 BL:LM00Cobalt2XG492ULM40Cobalt5XG39X1 BLB:n3s 1.2414e-21
C_0_120 BL:LM00Cobalt2XG492ULM40Cobalt5XG39X1 WL:LM00Cobalt2XG313ULM10Tungsten1XG328X1 1.2877e-18
C_0_121 BL:LM00Cobalt2XG492ULM40Cobalt5XG39X1 WL:LM00Cobalt2XG313ULM40Cobalt5XG256X1 1.0329e-18
C_0_122 BL:LM00Cobalt2XG492ULM40Cobalt5XG39X1 WL:LM00Cobalt2XG85ULM10Tungsten1XG145X1 1.0361e-21
C_0_123 BL:LM00Cobalt2XG492ULM40Cobalt5XG39X1 WL:LM00Cobalt2XG85ULM40Cobalt5XG77X1 5.6036e-23
C_0_124 BL:LM00Cobalt2XG492ULM40Cobalt5XG39X1 WL:LM20Cobalt3XG289ULM30Cobalt4XG102X1 4.4015e-19
C_0_125 BL:LM00Cobalt2XG492ULM40Cobalt5XG39X1 WL:LM20Cobalt3XG289ULM40Cobalt5XG256X1 9.5890e-19
C_0_126 BL:LM00Cobalt2XG492ULM40Cobalt5XG39X1 WL:LM20Cobalt3XG82ULM30Cobalt4XG102X1 2.9480e-19
C_0_127 BL:LM00Cobalt2XG492ULM40Cobalt5XG39X1 WL:LM20Cobalt3XG82ULM40Cobalt5XG77X1 5.2997e-23
C_0_128 BL:LM00Cobalt2XG492ULM40Cobalt5XG39X1 WL:n2g 8.1362e-20
C_0_129 BL:LM00Cobalt2XG492ULM40Cobalt5XG39X1 WL:n3g 3.5277e-22
C_0_130 BL:LM00Cobalt2XG492ULM40Cobalt5XG39X1 iQ1:LM00Cobalt2XG280ULM10Tungsten1XG329X1 6.8861e-19
C_0_131 BL:LM00Cobalt2XG492ULM40Cobalt5XG39X1 iQ1:LM00Cobalt2XG280USiGeBXG261X1 2.4797e-19
C_0_132 BL:LM00Cobalt2XG492ULM40Cobalt5XG39X1 iQ1:LM00Cobalt2XG280UTiSiXG274X1 2.4765e-19
C_0_133 BL:LM00Cobalt2XG492ULM40Cobalt5XG39X1 iQ1:LM00Cobalt2XG280UTiSiXG275X1 2.4757e-19
C_0_134 BL:LM00Cobalt2XG492ULM40Cobalt5XG39X1 iQ1:SDexcludeXG246UTiSiXG275X1 1.1882e-21
C_0_135 BL:LM00Cobalt2XG492ULM40Cobalt5XG39X1 iQ1:SDexcludeXG250UTiSiXG274X1 8.2234e-22
C_0_136 BL:LM00Cobalt2XG492ULM40Cobalt5XG39X1 iQ1:SiGeBXG261UTiSiXG275X1 4.1285e-22
C_0_137 BL:LM00Cobalt2XG492ULM40Cobalt5XG39X1 iQ1:SiGeBXG262UTiSiXG275X1 8.4850e-24
C_0_138 BL:LM00Cobalt2XG492ULM40Cobalt5XG39X1 iQ1:SiGeBXG265UTiSiXG275X1 8.4800e-24
C_0_139 BL:LM00Cobalt2XG492ULM40Cobalt5XG39X1 iQ1:SiGeBXG293UTiSiXG275X1 8.6180e-24
C_0_140 BL:LM00Cobalt2XG492ULM40Cobalt5XG39X1 iQ1:SiGeBXG297UTiSiXG275X1 8.4789e-24
C_0_141 BL:LM00Cobalt2XG492ULM40Cobalt5XG39X1 iQ1:SiliconNXG279UTiSiXG274X1 3.5526e-22
C_0_142 BL:LM00Cobalt2XG492ULM40Cobalt5XG39X1 iQ1:n1d 1.0168e-21
C_0_143 BL:LM00Cobalt2XG492ULM40Cobalt5XG39X1 iQ1:n2s 1.0168e-21
C_0_144 BL:LM00Cobalt2XG492ULM40Cobalt5XG39X1 iQ1:n4g 4.8860e-22
C_0_145 BL:LM00Cobalt2XG492ULM40Cobalt5XG39X1 iQ1:p1d 1.5841e-21
C_0_146 BL:LM00Cobalt2XG492ULM40Cobalt5XG39X1 iQ1:p2g 1.4532e-21
C_0_147 BL:LM00Cobalt2XG492ULM40Cobalt5XG39X1 iQ2:LM00Cobalt2XG117ULM10Tungsten1XG128X1 1.6309e-19
C_0_148 BL:LM00Cobalt2XG492ULM40Cobalt5XG39X1 iQ2:LM00Cobalt2XG117USiGeBXG266X1 6.6422e-22
C_0_149 BL:LM00Cobalt2XG492ULM40Cobalt5XG39X1 iQ2:LM00Cobalt2XG117UTiSiXG276X1 6.4114e-22
C_0_150 BL:LM00Cobalt2XG492ULM40Cobalt5XG39X1 iQ2:LM00Cobalt2XG117UTiSiXG277X1 6.4104e-22
C_0_151 BL:LM00Cobalt2XG492ULM40Cobalt5XG39X1 iQ2:SDexcludeXG247UTiSiXG276X1 6.5195e-22
C_0_152 BL:LM00Cobalt2XG492ULM40Cobalt5XG39X1 iQ2:SDexcludeXG251UTiSiXG277X1 3.0618e-22
C_0_153 BL:LM00Cobalt2XG492ULM40Cobalt5XG39X1 iQ2:SiGeBXG266UTiSiXG276X1 2.3437e-23
C_0_154 BL:LM00Cobalt2XG492ULM40Cobalt5XG39X1 iQ2:SiGeBXG267UTiSiXG276X1 1.8183e-25
C_0_155 BL:LM00Cobalt2XG492ULM40Cobalt5XG39X1 iQ2:SiGeBXG270UTiSiXG276X1 1.7531e-25
C_0_156 BL:LM00Cobalt2XG492ULM40Cobalt5XG39X1 iQ2:SiliconNXG281UTiSiXG277X1 1.2462e-23
C_0_157 BL:LM00Cobalt2XG492ULM40Cobalt5XG39X1 iQ2:n1g 9.4069e-22
C_0_158 BL:LM00Cobalt2XG492ULM40Cobalt5XG39X1 iQ2:n3d 3.1849e-22
C_0_159 BL:LM00Cobalt2XG492ULM40Cobalt5XG39X1 iQ2:n4s 3.1849e-22
C_0_160 BL:LM00Cobalt2XG492ULM40Cobalt5XG39X1 iQ2:p1g 5.9618e-22
C_0_161 BL:LM00Cobalt2XG492ULM40Cobalt5XG39X1 iQ2:p2s 6.7503e-22
C_0_162 BL:LM00Cobalt2XG492UTiSiXG484X1 BLB:LM00Cobalt2XG63ULM40Cobalt5XG60X1 9.9028e-22
C_0_163 BL:LM00Cobalt2XG492UTiSiXG484X1 BLB:LM00Cobalt2XG63UTiSiXG66X1 2.3738e-23
C_0_164 BL:LM00Cobalt2XG492UTiSiXG484X1 BLB:SiliconNXG67UTiSiXG66X1 1.5274e-22
C_0_165 BL:LM00Cobalt2XG492UTiSiXG484X1 BLB:n3s 9.6216e-22
C_0_166 BL:LM00Cobalt2XG492UTiSiXG484X1 WL:LM00Cobalt2XG313ULM10Tungsten1XG328X1 1.1448e-18
C_0_167 BL:LM00Cobalt2XG492UTiSiXG484X1 WL:LM00Cobalt2XG313ULM40Cobalt5XG256X1 2.9087e-19
C_0_168 BL:LM00Cobalt2XG492UTiSiXG484X1 WL:LM00Cobalt2XG85ULM10Tungsten1XG145X1 8.3276e-22
C_0_169 BL:LM00Cobalt2XG492UTiSiXG484X1 WL:LM00Cobalt2XG85ULM40Cobalt5XG77X1 1.5724e-24
C_0_170 BL:LM00Cobalt2XG492UTiSiXG484X1 WL:LM20Cobalt3XG289ULM30Cobalt4XG102X1 1.5009e-20
C_0_171 BL:LM00Cobalt2XG492UTiSiXG484X1 WL:LM20Cobalt3XG289ULM40Cobalt5XG256X1 1.4632e-19
C_0_172 BL:LM00Cobalt2XG492UTiSiXG484X1 WL:LM20Cobalt3XG82ULM30Cobalt4XG102X1 2.2605e-21
C_0_173 BL:LM00Cobalt2XG492UTiSiXG484X1 WL:LM20Cobalt3XG82ULM40Cobalt5XG77X1 6.4356e-25
C_0_174 BL:LM00Cobalt2XG492UTiSiXG484X1 WL:n2g 8.2373e-20
C_0_175 BL:LM00Cobalt2XG492UTiSiXG484X1 WL:n3g 3.2878e-22
C_0_176 BL:LM00Cobalt2XG492UTiSiXG484X1 iQ1:LM00Cobalt2XG280ULM10Tungsten1XG329X1 4.7588e-19
C_0_177 BL:LM00Cobalt2XG492UTiSiXG484X1 iQ1:LM00Cobalt2XG280USiGeBXG261X1 6.1592e-20
C_0_178 BL:LM00Cobalt2XG492UTiSiXG484X1 iQ1:LM00Cobalt2XG280UTiSiXG274X1 6.1249e-20
C_0_179 BL:LM00Cobalt2XG492UTiSiXG484X1 iQ1:LM00Cobalt2XG280UTiSiXG275X1 6.1211e-20
C_0_180 BL:LM00Cobalt2XG492UTiSiXG484X1 iQ1:SDexcludeXG246UTiSiXG275X1 1.1614e-21
C_0_181 BL:LM00Cobalt2XG492UTiSiXG484X1 iQ1:SDexcludeXG250UTiSiXG274X1 7.6302e-22
C_0_182 BL:LM00Cobalt2XG492UTiSiXG484X1 iQ1:SiGeBXG261UTiSiXG275X1 3.9577e-22
C_0_183 BL:LM00Cobalt2XG492UTiSiXG484X1 iQ1:SiGeBXG262UTiSiXG275X1 7.5029e-24
C_0_184 BL:LM00Cobalt2XG492UTiSiXG484X1 iQ1:SiGeBXG265UTiSiXG275X1 7.5003e-24
C_0_185 BL:LM00Cobalt2XG492UTiSiXG484X1 iQ1:SiGeBXG293UTiSiXG275X1 7.5875e-24
C_0_186 BL:LM00Cobalt2XG492UTiSiXG484X1 iQ1:SiGeBXG297UTiSiXG275X1 7.5003e-24
C_0_187 BL:LM00Cobalt2XG492UTiSiXG484X1 iQ1:SiliconNXG279UTiSiXG274X1 2.7750e-22
C_0_188 BL:LM00Cobalt2XG492UTiSiXG484X1 iQ1:n1d 9.5041e-22
C_0_189 BL:LM00Cobalt2XG492UTiSiXG484X1 iQ1:n2s 9.5041e-22
C_0_190 BL:LM00Cobalt2XG492UTiSiXG484X1 iQ1:n4g 4.7551e-22
C_0_191 BL:LM00Cobalt2XG492UTiSiXG484X1 iQ1:p1d 1.5422e-21
C_0_192 BL:LM00Cobalt2XG492UTiSiXG484X1 iQ1:p2g 1.4093e-21
C_0_193 BL:LM00Cobalt2XG492UTiSiXG484X1 iQ2:LM00Cobalt2XG117ULM10Tungsten1XG128X1 3.7777e-21
C_0_194 BL:LM00Cobalt2XG492UTiSiXG484X1 iQ2:LM00Cobalt2XG117USiGeBXG266X1 1.4193e-22
C_0_195 BL:LM00Cobalt2XG492UTiSiXG484X1 iQ2:LM00Cobalt2XG117UTiSiXG276X1 1.2481e-22
C_0_196 BL:LM00Cobalt2XG492UTiSiXG484X1 iQ2:LM00Cobalt2XG117UTiSiXG277X1 1.2480e-22
C_0_197 BL:LM00Cobalt2XG492UTiSiXG484X1 iQ2:SDexcludeXG247UTiSiXG276X1 6.3394e-22
C_0_198 BL:LM00Cobalt2XG492UTiSiXG484X1 iQ2:SDexcludeXG251UTiSiXG277X1 2.9768e-22
C_0_199 BL:LM00Cobalt2XG492UTiSiXG484X1 iQ2:SiGeBXG266UTiSiXG276X1 1.7246e-23
C_0_200 BL:LM00Cobalt2XG492UTiSiXG484X1 iQ2:SiGeBXG267UTiSiXG276X1 6.5324e-26
C_0_201 BL:LM00Cobalt2XG492UTiSiXG484X1 iQ2:SiGeBXG270UTiSiXG276X1 6.0854e-26
C_0_202 BL:LM00Cobalt2XG492UTiSiXG484X1 iQ2:SiliconNXG281UTiSiXG277X1 1.1967e-23
C_0_203 BL:LM00Cobalt2XG492UTiSiXG484X1 iQ2:n1g 5.1822e-22
C_0_204 BL:LM00Cobalt2XG492UTiSiXG484X1 iQ2:n3d 3.0953e-22
C_0_205 BL:LM00Cobalt2XG492UTiSiXG484X1 iQ2:n4s 3.0953e-22
C_0_206 BL:LM00Cobalt2XG492UTiSiXG484X1 iQ2:p1g 4.2345e-22
C_0_207 BL:LM00Cobalt2XG492UTiSiXG484X1 iQ2:p2s 6.5107e-22
C_0_208 BL:SiliconNXG479UTiSiXG484X1 BLB:LM00Cobalt2XG63ULM40Cobalt5XG60X1 3.6033e-22
C_0_209 BL:SiliconNXG479UTiSiXG484X1 BLB:LM00Cobalt2XG63UTiSiXG66X1 1.5544e-22
C_0_210 BL:SiliconNXG479UTiSiXG484X1 BLB:SiliconNXG67UTiSiXG66X1 9.9713e-22
C_0_211 BL:SiliconNXG479UTiSiXG484X1 BLB:n3s 6.2399e-21
C_0_212 BL:SiliconNXG479UTiSiXG484X1 WL:LM00Cobalt2XG313ULM10Tungsten1XG328X1 1.6767e-18
C_0_213 BL:SiliconNXG479UTiSiXG484X1 WL:LM00Cobalt2XG313ULM40Cobalt5XG256X1 4.6953e-20
C_0_214 BL:SiliconNXG479UTiSiXG484X1 WL:LM00Cobalt2XG85ULM10Tungsten1XG145X1 5.2793e-21
C_0_215 BL:SiliconNXG479UTiSiXG484X1 WL:LM00Cobalt2XG85ULM40Cobalt5XG77X1 8.5939e-24
C_0_216 BL:SiliconNXG479UTiSiXG484X1 WL:LM20Cobalt3XG289ULM30Cobalt4XG102X1 5.2245e-22
C_0_217 BL:SiliconNXG479UTiSiXG484X1 WL:LM20Cobalt3XG289ULM40Cobalt5XG256X1 5.2140e-21
C_0_218 BL:SiliconNXG479UTiSiXG484X1 WL:LM20Cobalt3XG82ULM30Cobalt4XG102X1 1.0048e-22
C_0_219 BL:SiliconNXG479UTiSiXG484X1 WL:LM20Cobalt3XG82ULM40Cobalt5XG77X1 2.5223e-24
C_0_220 BL:SiliconNXG479UTiSiXG484X1 WL:n2g 1.7529e-21
C_0_221 BL:SiliconNXG479UTiSiXG484X1 WL:n3g 1.7062e-23
C_0_222 BL:SiliconNXG479UTiSiXG484X1 iQ1:LM00Cobalt2XG280ULM10Tungsten1XG329X1 2.8052e-19
C_0_223 BL:SiliconNXG479UTiSiXG484X1 iQ1:LM00Cobalt2XG280USiGeBXG261X1 4.4627e-21
C_0_224 BL:SiliconNXG479UTiSiXG484X1 iQ1:LM00Cobalt2XG280UTiSiXG274X1 3.7218e-21
C_0_225 BL:SiliconNXG479UTiSiXG484X1 iQ1:LM00Cobalt2XG280UTiSiXG275X1 3.6989e-21
C_0_226 BL:SiliconNXG479UTiSiXG484X1 iQ1:SDexcludeXG246UTiSiXG275X1 6.6874e-21
C_0_227 BL:SiliconNXG479UTiSiXG484X1 iQ1:SDexcludeXG250UTiSiXG274X1 5.7905e-21
C_0_228 BL:SiliconNXG479UTiSiXG484X1 iQ1:SiGeBXG261UTiSiXG275X1 7.7444e-22
C_0_229 BL:SiliconNXG479UTiSiXG484X1 iQ1:SiGeBXG262UTiSiXG275X1 5.3122e-24
C_0_230 BL:SiliconNXG479UTiSiXG484X1 iQ1:SiGeBXG265UTiSiXG275X1 5.3031e-24
C_0_231 BL:SiliconNXG479UTiSiXG484X1 iQ1:SiGeBXG293UTiSiXG275X1 5.3618e-24
C_0_232 BL:SiliconNXG479UTiSiXG484X1 iQ1:SiGeBXG297UTiSiXG275X1 5.3030e-24
C_0_233 BL:SiliconNXG479UTiSiXG484X1 iQ1:SiliconNXG279UTiSiXG274X1 6.1591e-22
C_0_234 BL:SiliconNXG479UTiSiXG484X1 iQ1:n1d 6.3501e-21
C_0_235 BL:SiliconNXG479UTiSiXG484X1 iQ1:n2s 6.3501e-21
C_0_236 BL:SiliconNXG479UTiSiXG484X1 iQ1:n4g 2.2802e-23
C_0_237 BL:SiliconNXG479UTiSiXG484X1 iQ1:p1d 7.4512e-21
C_0_238 BL:SiliconNXG479UTiSiXG484X1 iQ1:p2g 5.7135e-23
C_0_239 BL:SiliconNXG479UTiSiXG484X1 iQ2:LM00Cobalt2XG117ULM10Tungsten1XG128X1 1.9433e-20
C_0_240 BL:SiliconNXG479UTiSiXG484X1 iQ2:LM00Cobalt2XG117USiGeBXG266X1 1.1567e-22
C_0_241 BL:SiliconNXG479UTiSiXG484X1 iQ2:LM00Cobalt2XG117UTiSiXG276X1 2.6031e-23
C_0_242 BL:SiliconNXG479UTiSiXG484X1 iQ2:LM00Cobalt2XG117UTiSiXG277X1 2.6300e-23
C_0_243 BL:SiliconNXG479UTiSiXG484X1 iQ2:SDexcludeXG247UTiSiXG276X1 3.6265e-21
C_0_244 BL:SiliconNXG479UTiSiXG484X1 iQ2:SDexcludeXG251UTiSiXG277X1 1.8030e-21
C_0_245 BL:SiliconNXG479UTiSiXG484X1 iQ2:SiGeBXG266UTiSiXG276X1 8.9677e-23
C_0_246 BL:SiliconNXG479UTiSiXG484X1 iQ2:SiGeBXG267UTiSiXG276X1 6.0343e-26
C_0_247 BL:SiliconNXG479UTiSiXG484X1 iQ2:SiGeBXG270UTiSiXG276X1 2.0652e-26
C_0_248 BL:SiliconNXG479UTiSiXG484X1 iQ2:SiliconNXG281UTiSiXG277X1 7.1335e-23
C_0_249 BL:SiliconNXG479UTiSiXG484X1 iQ2:n1g 2.7902e-23
C_0_250 BL:SiliconNXG479UTiSiXG484X1 iQ2:n3d 1.8737e-21
C_0_251 BL:SiliconNXG479UTiSiXG484X1 iQ2:n4s 1.8737e-21
C_0_252 BL:SiliconNXG479UTiSiXG484X1 iQ2:p1g 2.2097e-23
C_0_253 BL:SiliconNXG479UTiSiXG484X1 iQ2:p2s 3.7161e-21
C_0_254 BL:n2d BLB:LM00Cobalt2XG63ULM40Cobalt5XG60X1 1.2597e-21
C_0_255 BL:n2d BLB:LM00Cobalt2XG63UTiSiXG66X1 9.7920e-22
C_0_256 BL:n2d BLB:SiliconNXG67UTiSiXG66X1 6.2386e-21
C_0_257 BL:n2d BLB:n3s 3.8869e-20
C_0_258 BL:n2d WL:LM00Cobalt2XG313ULM10Tungsten1XG328X1 3.5810e-18
C_0_259 BL:n2d WL:LM00Cobalt2XG313ULM40Cobalt5XG256X1 5.0665e-20
C_0_260 BL:n2d WL:LM00Cobalt2XG85ULM10Tungsten1XG145X1 3.2550e-20
C_0_261 BL:n2d WL:LM00Cobalt2XG85ULM40Cobalt5XG77X1 5.3538e-23
C_0_262 BL:n2d WL:LM20Cobalt3XG289ULM30Cobalt4XG102X1 5.5333e-22
C_0_263 BL:n2d WL:LM20Cobalt3XG289ULM40Cobalt5XG256X1 5.5181e-21
C_0_264 BL:n2d WL:LM20Cobalt3XG82ULM30Cobalt4XG102X1 1.0858e-22
C_0_265 BL:n2d WL:LM20Cobalt3XG82ULM40Cobalt5XG77X1 1.5619e-23
C_0_266 BL:n2d iQ1:LM00Cobalt2XG280ULM10Tungsten1XG329X1 5.5643e-19
C_0_267 BL:n2d iQ1:LM00Cobalt2XG280USiGeBXG261X1 6.4930e-21
C_0_268 BL:n2d iQ1:LM00Cobalt2XG280UTiSiXG274X1 4.4309e-21
C_0_269 BL:n2d iQ1:LM00Cobalt2XG280UTiSiXG275X1 4.3937e-21
C_0_270 BL:n2d iQ1:SDexcludeXG246UTiSiXG275X1 4.0825e-20
C_0_271 BL:n2d iQ1:SDexcludeXG250UTiSiXG274X1 8.0621e-20
C_0_272 BL:n2d iQ1:SiGeBXG261UTiSiXG275X1 2.1122e-21
C_0_273 BL:n2d iQ1:SiGeBXG262UTiSiXG275X1 6.4608e-24
C_0_274 BL:n2d iQ1:SiGeBXG265UTiSiXG275X1 6.4468e-24
C_0_275 BL:n2d iQ1:SiGeBXG293UTiSiXG275X1 6.6529e-24
C_0_276 BL:n2d iQ1:SiGeBXG297UTiSiXG275X1 6.4457e-24
C_0_277 BL:n2d iQ1:SiliconNXG279UTiSiXG274X1 2.4773e-21
C_0_278 BL:n2d iQ1:n1d 8.3011e-20
C_0_279 BL:n2d iQ1:n2s 8.3011e-20
C_0_280 BL:n2d iQ1:p1d 4.2924e-20
C_0_281 BL:n2d iQ2:LM00Cobalt2XG117ULM10Tungsten1XG128X1 1.3292e-19
C_0_282 BL:n2d iQ2:LM00Cobalt2XG117USiGeBXG266X1 5.9532e-22
C_0_283 BL:n2d iQ2:LM00Cobalt2XG117UTiSiXG276X1 6.5907e-23
C_0_284 BL:n2d iQ2:LM00Cobalt2XG117UTiSiXG277X1 6.7521e-23
C_0_285 BL:n2d iQ2:SDexcludeXG247UTiSiXG276X1 2.1221e-20
C_0_286 BL:n2d iQ2:SDexcludeXG251UTiSiXG277X1 1.0894e-20
C_0_287 BL:n2d iQ2:SiGeBXG266UTiSiXG276X1 5.2958e-22
C_0_288 BL:n2d iQ2:SiGeBXG267UTiSiXG276X1 2.2936e-25
C_0_289 BL:n2d iQ2:SiGeBXG270UTiSiXG276X1 8.5924e-26
C_0_290 BL:n2d iQ2:SiliconNXG281UTiSiXG277X1 4.2857e-22
C_0_291 BL:n2d iQ2:n3d 1.1319e-20
C_0_292 BL:n2d iQ2:n4s 1.1319e-20
C_0_293 BL:n2d iQ2:p2s 2.1750e-20
R_0_0 BLD BLU 2.3329e+01
R_0_1 BLD BL:LM00Cobalt2XG492ULM40Cobalt5XG39X1 2.2462e+01
R_0_2 BLU BL:LM00Cobalt2XG492ULM40Cobalt5XG39X1 6.0547e+02
R_0_3 BL:LM00Cobalt2XG492ULM40Cobalt5XG39X1 BL:LM00Cobalt2XG492UTiSiXG484X1 1.1854e+02
R_0_4 BL:LM00Cobalt2XG492UTiSiXG484X1 BL:SiliconNXG479UTiSiXG484X1 4.0820e+02
R_0_5 BL:SiliconNXG479UTiSiXG484X1 BL:n2d 4.1726e+01

*|NET BLB 4.2935e-05PF
C_1_0 BLBD WLL 2.9322e-19
C_1_1 BLBD WLR 2.9322e-19
C_1_2 BLBD WL:LM00Cobalt2XG313ULM10Tungsten1XG328X1 2.4425e-22
C_1_3 BLBD WL:LM00Cobalt2XG313ULM40Cobalt5XG256X1 3.8791e-23
C_1_4 BLBD WL:LM00Cobalt2XG85ULM10Tungsten1XG145X1 1.4346e-19
C_1_5 BLBD WL:LM00Cobalt2XG85ULM40Cobalt5XG77X1 7.2302e-19
C_1_6 BLBD WL:LM20Cobalt3XG289ULM30Cobalt4XG102X1 2.9324e-19
C_1_7 BLBD WL:LM20Cobalt3XG289ULM40Cobalt5XG256X1 4.1297e-23
C_1_8 BLBD WL:LM20Cobalt3XG82ULM30Cobalt4XG102X1 4.0302e-19
C_1_9 BLBD WL:LM20Cobalt3XG82ULM40Cobalt5XG77X1 7.7377e-19
C_1_10 BLBD WL:n2g 4.1857e-23
C_1_11 BLBD WL:n3g 5.9913e-22
C_1_12 BLBD iQ1:LM00Cobalt2XG280ULM10Tungsten1XG329X1 1.7004e-19
C_1_13 BLBD iQ1:LM00Cobalt2XG280USiGeBXG261X1 5.3923e-22
C_1_14 BLBD iQ1:LM00Cobalt2XG280UTiSiXG274X1 5.3231e-22
C_1_15 BLBD iQ1:LM00Cobalt2XG280UTiSiXG275X1 5.3238e-22
C_1_16 BLBD iQ1:SDexcludeXG246UTiSiXG275X1 4.9149e-23
C_1_17 BLBD iQ1:SDexcludeXG250UTiSiXG274X1 2.3389e-23
C_1_18 BLBD iQ1:SiGeBXG261UTiSiXG275X1 7.0582e-24
C_1_19 BLBD iQ1:SiGeBXG262UTiSiXG275X1 1.0610e-25
C_1_20 BLBD iQ1:SiGeBXG265UTiSiXG275X1 1.0460e-25
C_1_21 BLBD iQ1:SiGeBXG293UTiSiXG275X1 1.0851e-25
C_1_22 BLBD iQ1:SiGeBXG297UTiSiXG275X1 1.0456e-25
C_1_23 BLBD iQ1:SiliconNXG279UTiSiXG274X1 1.1659e-24
C_1_24 BLBD iQ1:n1d 2.4495e-23
C_1_25 BLBD iQ1:n2s 2.4495e-23
C_1_26 BLBD iQ1:n4g 5.6050e-22
C_1_27 BLBD iQ1:p1d 5.5999e-23
C_1_28 BLBD iQ1:p2g 2.3459e-22
C_1_29 BLBD iQ2:LM00Cobalt2XG117ULM10Tungsten1XG128X1 2.1735e-19
C_1_30 BLBD iQ2:LM00Cobalt2XG117USiGeBXG266X1 1.8563e-19
C_1_31 BLBD iQ2:LM00Cobalt2XG117UTiSiXG276X1 1.8561e-19
C_1_32 BLBD iQ2:LM00Cobalt2XG117UTiSiXG277X1 1.8565e-19
C_1_33 BLBD iQ2:SDexcludeXG247UTiSiXG276X1 7.9906e-23
C_1_34 BLBD iQ2:SDexcludeXG251UTiSiXG277X1 1.0223e-22
C_1_35 BLBD iQ2:SiGeBXG266UTiSiXG276X1 2.2835e-23
C_1_36 BLBD iQ2:SiGeBXG267UTiSiXG276X1 1.1526e-24
C_1_37 BLBD iQ2:SiGeBXG270UTiSiXG276X1 1.1491e-24
C_1_38 BLBD iQ2:SiliconNXG281UTiSiXG277X1 1.1269e-22
C_1_39 BLBD iQ2:n1g 3.5273e-23
C_1_40 BLBD iQ2:n3d 1.3327e-22
C_1_41 BLBD iQ2:n4s 1.3327e-22
C_1_42 BLBD iQ2:p1g 9.6230e-23
C_1_43 BLBD iQ2:p2s 1.0044e-22
C_1_44 BLBU WLL 2.9322e-19
C_1_45 BLBU WLR 2.9322e-19
C_1_46 BLBU WL:LM00Cobalt2XG313ULM10Tungsten1XG328X1 2.4425e-22
C_1_47 BLBU WL:LM00Cobalt2XG313ULM40Cobalt5XG256X1 3.8791e-23
C_1_48 BLBU WL:LM00Cobalt2XG85ULM10Tungsten1XG145X1 1.4346e-19
C_1_49 BLBU WL:LM00Cobalt2XG85ULM40Cobalt5XG77X1 7.2302e-19
C_1_50 BLBU WL:LM20Cobalt3XG289ULM30Cobalt4XG102X1 2.9324e-19
C_1_51 BLBU WL:LM20Cobalt3XG289ULM40Cobalt5XG256X1 4.1297e-23
C_1_52 BLBU WL:LM20Cobalt3XG82ULM30Cobalt4XG102X1 4.0302e-19
C_1_53 BLBU WL:LM20Cobalt3XG82ULM40Cobalt5XG77X1 7.7377e-19
C_1_54 BLBU WL:n2g 4.1857e-23
C_1_55 BLBU WL:n3g 5.9913e-22
C_1_56 BLBU iQ1:LM00Cobalt2XG280ULM10Tungsten1XG329X1 1.7004e-19
C_1_57 BLBU iQ1:LM00Cobalt2XG280USiGeBXG261X1 5.3923e-22
C_1_58 BLBU iQ1:LM00Cobalt2XG280UTiSiXG274X1 5.3231e-22
C_1_59 BLBU iQ1:LM00Cobalt2XG280UTiSiXG275X1 5.3238e-22
C_1_60 BLBU iQ1:SDexcludeXG246UTiSiXG275X1 4.9149e-23
C_1_61 BLBU iQ1:SDexcludeXG250UTiSiXG274X1 2.3389e-23
C_1_62 BLBU iQ1:SiGeBXG261UTiSiXG275X1 7.0582e-24
C_1_63 BLBU iQ1:SiGeBXG262UTiSiXG275X1 1.0610e-25
C_1_64 BLBU iQ1:SiGeBXG265UTiSiXG275X1 1.0460e-25
C_1_65 BLBU iQ1:SiGeBXG293UTiSiXG275X1 1.0851e-25
C_1_66 BLBU iQ1:SiGeBXG297UTiSiXG275X1 1.0456e-25
C_1_67 BLBU iQ1:SiliconNXG279UTiSiXG274X1 1.1659e-24
C_1_68 BLBU iQ1:n1d 2.4495e-23
C_1_69 BLBU iQ1:n2s 2.4495e-23
C_1_70 BLBU iQ1:n4g 5.6050e-22
C_1_71 BLBU iQ1:p1d 5.5999e-23
C_1_72 BLBU iQ1:p2g 2.3459e-22
C_1_73 BLBU iQ2:LM00Cobalt2XG117ULM10Tungsten1XG128X1 2.1735e-19
C_1_74 BLBU iQ2:LM00Cobalt2XG117USiGeBXG266X1 1.8563e-19
C_1_75 BLBU iQ2:LM00Cobalt2XG117UTiSiXG276X1 1.8561e-19
C_1_76 BLBU iQ2:LM00Cobalt2XG117UTiSiXG277X1 1.8565e-19
C_1_77 BLBU iQ2:SDexcludeXG247UTiSiXG276X1 7.9906e-23
C_1_78 BLBU iQ2:SDexcludeXG251UTiSiXG277X1 1.0223e-22
C_1_79 BLBU iQ2:SiGeBXG266UTiSiXG276X1 2.2835e-23
C_1_80 BLBU iQ2:SiGeBXG267UTiSiXG276X1 1.1526e-24
C_1_81 BLBU iQ2:SiGeBXG270UTiSiXG276X1 1.1491e-24
C_1_82 BLBU iQ2:SiliconNXG281UTiSiXG277X1 1.1269e-22
C_1_83 BLBU iQ2:n1g 3.5273e-23
C_1_84 BLBU iQ2:n3d 1.3327e-22
C_1_85 BLBU iQ2:n4s 1.3327e-22
C_1_86 BLBU iQ2:p1g 9.6230e-23
C_1_87 BLBU iQ2:p2s 1.0044e-22
C_1_88 WLL BLB:LM00Cobalt2XG63ULM40Cobalt5XG60X1 2.9509e-19
C_1_89 WLL BLB:LM00Cobalt2XG63UTiSiXG66X1 1.8690e-21
C_1_90 WLL BLB:SiliconNXG67UTiSiXG66X1 8.1868e-23
C_1_91 WLL BLB:n3s 8.8344e-23
C_1_92 WLR BLB:LM00Cobalt2XG63ULM40Cobalt5XG60X1 2.9509e-19
C_1_93 WLR BLB:LM00Cobalt2XG63UTiSiXG66X1 1.8690e-21
C_1_94 WLR BLB:SiliconNXG67UTiSiXG66X1 8.1868e-23
C_1_95 WLR BLB:n3s 8.8344e-23
C_1_96 BLB:LM00Cobalt2XG63ULM40Cobalt5XG60X1 WL:LM00Cobalt2XG313ULM10Tungsten1XG328X1 1.0247e-21
C_1_97 BLB:LM00Cobalt2XG63ULM40Cobalt5XG60X1 WL:LM00Cobalt2XG313ULM40Cobalt5XG256X1 4.0358e-23
C_1_98 BLB:LM00Cobalt2XG63ULM40Cobalt5XG60X1 WL:LM00Cobalt2XG85ULM10Tungsten1XG145X1 1.4474e-18
C_1_99 BLB:LM00Cobalt2XG63ULM40Cobalt5XG60X1 WL:LM00Cobalt2XG85ULM40Cobalt5XG77X1 1.0814e-18
C_1_100 BLB:LM00Cobalt2XG63ULM40Cobalt5XG60X1 WL:LM20Cobalt3XG289ULM30Cobalt4XG102X1 2.9511e-19
C_1_101 BLB:LM00Cobalt2XG63ULM40Cobalt5XG60X1 WL:LM20Cobalt3XG289ULM40Cobalt5XG256X1 4.1962e-23
C_1_102 BLB:LM00Cobalt2XG63ULM40Cobalt5XG60X1 WL:LM20Cobalt3XG82ULM30Cobalt4XG102X1 4.0969e-19
C_1_103 BLB:LM00Cobalt2XG63ULM40Cobalt5XG60X1 WL:LM20Cobalt3XG82ULM40Cobalt5XG77X1 9.7735e-19
C_1_104 BLB:LM00Cobalt2XG63ULM40Cobalt5XG60X1 WL:n2g 3.6062e-22
C_1_105 BLB:LM00Cobalt2XG63ULM40Cobalt5XG60X1 WL:n3g 9.8469e-20
C_1_106 BLB:LM00Cobalt2XG63ULM40Cobalt5XG60X1 iQ1:LM00Cobalt2XG280ULM10Tungsten1XG329X1 1.7370e-19
C_1_107 BLB:LM00Cobalt2XG63ULM40Cobalt5XG60X1 iQ1:LM00Cobalt2XG280USiGeBXG261X1 6.7675e-22
C_1_108 BLB:LM00Cobalt2XG63ULM40Cobalt5XG60X1 iQ1:LM00Cobalt2XG280UTiSiXG274X1 6.5321e-22
C_1_109 BLB:LM00Cobalt2XG63ULM40Cobalt5XG60X1 iQ1:LM00Cobalt2XG280UTiSiXG275X1 6.5325e-22
C_1_110 BLB:LM00Cobalt2XG63ULM40Cobalt5XG60X1 iQ1:SDexcludeXG246UTiSiXG275X1 6.6033e-22
C_1_111 BLB:LM00Cobalt2XG63ULM40Cobalt5XG60X1 iQ1:SDexcludeXG250UTiSiXG274X1 3.1087e-22
C_1_112 BLB:LM00Cobalt2XG63ULM40Cobalt5XG60X1 iQ1:SiGeBXG261UTiSiXG275X1 2.3818e-23
C_1_113 BLB:LM00Cobalt2XG63ULM40Cobalt5XG60X1 iQ1:SiGeBXG262UTiSiXG275X1 1.6372e-25
C_1_114 BLB:LM00Cobalt2XG63ULM40Cobalt5XG60X1 iQ1:SiGeBXG265UTiSiXG275X1 1.6167e-25
C_1_115 BLB:LM00Cobalt2XG63ULM40Cobalt5XG60X1 iQ1:SiGeBXG293UTiSiXG275X1 1.8188e-25
C_1_116 BLB:LM00Cobalt2XG63ULM40Cobalt5XG60X1 iQ1:SiGeBXG297UTiSiXG275X1 1.6154e-25
C_1_117 BLB:LM00Cobalt2XG63ULM40Cobalt5XG60X1 iQ1:SiliconNXG279UTiSiXG274X1 1.2853e-23
C_1_118 BLB:LM00Cobalt2XG63ULM40Cobalt5XG60X1 iQ1:n1d 3.2350e-22
C_1_119 BLB:LM00Cobalt2XG63ULM40Cobalt5XG60X1 iQ1:n2s 3.2350e-22
C_1_120 BLB:LM00Cobalt2XG63ULM40Cobalt5XG60X1 iQ1:n4g 1.0547e-21
C_1_121 BLB:LM00Cobalt2XG63ULM40Cobalt5XG60X1 iQ1:p1d 6.8383e-22
C_1_122 BLB:LM00Cobalt2XG63ULM40Cobalt5XG60X1 iQ1:p2g 6.3939e-22
C_1_123 BLB:LM00Cobalt2XG63ULM40Cobalt5XG60X1 iQ2:LM00Cobalt2XG117ULM10Tungsten1XG128X1 7.1113e-19
C_1_124 BLB:LM00Cobalt2XG63ULM40Cobalt5XG60X1 iQ2:LM00Cobalt2XG117USiGeBXG266X1 2.5050e-19
C_1_125 BLB:LM00Cobalt2XG63ULM40Cobalt5XG60X1 iQ2:LM00Cobalt2XG117UTiSiXG276X1 2.5012e-19
C_1_126 BLB:LM00Cobalt2XG63ULM40Cobalt5XG60X1 iQ2:LM00Cobalt2XG117UTiSiXG277X1 2.5018e-19
C_1_127 BLB:LM00Cobalt2XG63ULM40Cobalt5XG60X1 iQ2:SDexcludeXG247UTiSiXG276X1 1.1912e-21
C_1_128 BLB:LM00Cobalt2XG63ULM40Cobalt5XG60X1 iQ2:SDexcludeXG251UTiSiXG277X1 8.1337e-22
C_1_129 BLB:LM00Cobalt2XG63ULM40Cobalt5XG60X1 iQ2:SiGeBXG266UTiSiXG276X1 4.0136e-22
C_1_130 BLB:LM00Cobalt2XG63ULM40Cobalt5XG60X1 iQ2:SiGeBXG267UTiSiXG276X1 1.0836e-23
C_1_131 BLB:LM00Cobalt2XG63ULM40Cobalt5XG60X1 iQ2:SiGeBXG270UTiSiXG276X1 1.0826e-23
C_1_132 BLB:LM00Cobalt2XG63ULM40Cobalt5XG60X1 iQ2:SiliconNXG281UTiSiXG277X1 3.4291e-22
C_1_133 BLB:LM00Cobalt2XG63ULM40Cobalt5XG60X1 iQ2:n1g 4.9582e-22
C_1_134 BLB:LM00Cobalt2XG63ULM40Cobalt5XG60X1 iQ2:n3d 1.0026e-21
C_1_135 BLB:LM00Cobalt2XG63ULM40Cobalt5XG60X1 iQ2:n4s 1.0026e-21
C_1_136 BLB:LM00Cobalt2XG63ULM40Cobalt5XG60X1 iQ2:p1g 1.4551e-21
C_1_137 BLB:LM00Cobalt2XG63ULM40Cobalt5XG60X1 iQ2:p2s 1.5709e-21
C_1_138 BLB:LM00Cobalt2XG63UTiSiXG66X1 WL:LM00Cobalt2XG313ULM10Tungsten1XG328X1 8.2248e-22
C_1_139 BLB:LM00Cobalt2XG63UTiSiXG66X1 WL:LM00Cobalt2XG313ULM40Cobalt5XG256X1 1.6353e-24
C_1_140 BLB:LM00Cobalt2XG63UTiSiXG66X1 WL:LM00Cobalt2XG85ULM10Tungsten1XG145X1 1.3123e-18
C_1_141 BLB:LM00Cobalt2XG63UTiSiXG66X1 WL:LM00Cobalt2XG85ULM40Cobalt5XG77X1 3.5929e-19
C_1_142 BLB:LM00Cobalt2XG63UTiSiXG66X1 WL:LM20Cobalt3XG289ULM30Cobalt4XG102X1 1.8691e-21
C_1_143 BLB:LM00Cobalt2XG63UTiSiXG66X1 WL:LM20Cobalt3XG289ULM40Cobalt5XG256X1 6.8395e-25
C_1_144 BLB:LM00Cobalt2XG63UTiSiXG66X1 WL:LM20Cobalt3XG82ULM30Cobalt4XG102X1 6.6748e-21
C_1_145 BLB:LM00Cobalt2XG63UTiSiXG66X1 WL:LM20Cobalt3XG82ULM40Cobalt5XG77X1 2.0383e-19
C_1_146 BLB:LM00Cobalt2XG63UTiSiXG66X1 WL:n2g 3.3594e-22
C_1_147 BLB:LM00Cobalt2XG63UTiSiXG66X1 WL:n3g 9.9968e-20
C_1_148 BLB:LM00Cobalt2XG63UTiSiXG66X1 iQ1:LM00Cobalt2XG280ULM10Tungsten1XG329X1 3.8414e-21
C_1_149 BLB:LM00Cobalt2XG63UTiSiXG66X1 iQ1:LM00Cobalt2XG280USiGeBXG261X1 1.3937e-22
C_1_150 BLB:LM00Cobalt2XG63UTiSiXG66X1 iQ1:LM00Cobalt2XG280UTiSiXG274X1 1.2196e-22
C_1_151 BLB:LM00Cobalt2XG63UTiSiXG66X1 iQ1:LM00Cobalt2XG280UTiSiXG275X1 1.2193e-22
C_1_152 BLB:LM00Cobalt2XG63UTiSiXG66X1 iQ1:SDexcludeXG246UTiSiXG275X1 6.4309e-22
C_1_153 BLB:LM00Cobalt2XG63UTiSiXG66X1 iQ1:SDexcludeXG250UTiSiXG274X1 3.0271e-22
C_1_154 BLB:LM00Cobalt2XG63UTiSiXG66X1 iQ1:SiGeBXG261UTiSiXG275X1 1.7557e-23
C_1_155 BLB:LM00Cobalt2XG63UTiSiXG66X1 iQ1:SiGeBXG262UTiSiXG275X1 5.8165e-26
C_1_156 BLB:LM00Cobalt2XG63UTiSiXG66X1 iQ1:SiGeBXG265UTiSiXG275X1 5.7601e-26
C_1_157 BLB:LM00Cobalt2XG63UTiSiXG66X1 iQ1:SiGeBXG293UTiSiXG275X1 7.4749e-26
C_1_158 BLB:LM00Cobalt2XG63UTiSiXG66X1 iQ1:SiGeBXG297UTiSiXG275X1 5.7506e-26
C_1_159 BLB:LM00Cobalt2XG63UTiSiXG66X1 iQ1:SiliconNXG279UTiSiXG274X1 1.2301e-23
C_1_160 BLB:LM00Cobalt2XG63UTiSiXG66X1 iQ1:n1d 3.1484e-22
C_1_161 BLB:LM00Cobalt2XG63UTiSiXG66X1 iQ1:n2s 3.1484e-22
C_1_162 BLB:LM00Cobalt2XG63UTiSiXG66X1 iQ1:n4g 5.2190e-22
C_1_163 BLB:LM00Cobalt2XG63UTiSiXG66X1 iQ1:p1d 6.6053e-22